*SPEF "ieee 1481-1999"
*DESIGN "counter"
*DATE "13:30:14 Monday May 19, 2025"
*VENDOR "The OpenROAD Project"
*PROGRAM "OpenROAD"
*VERSION "b16bda7e82721d10566ff7e2b68f1ff0be9f9e38"
*DESIGN_FLOW "NAME_SCOPE LOCAL" "PIN_CAP NONE"
*DIVIDER /
*DELIMITER :
*BUS_DELIMITER []
*T_UNIT 1 NS
*C_UNIT 1 PF
*R_UNIT 1 OHM
*L_UNIT 1 HENRY

*NAME_MAP
*3 clk
*4 count[0]
*5 count[1]
*6 count[2]
*7 count[3]
*8 rst
*9 _00_
*10 _01_
*11 _02_
*12 _03_
*13 _04_
*14 _05_
*15 _06_
*16 _07_
*17 _08_
*18 clknet_0_clk
*19 clknet_1_0__leaf_clk
*20 clknet_1_1__leaf_clk
*21 net1
*22 net2
*23 net3
*24 net4
*25 net5
*26 FILLER_0_0_20
*27 FILLER_0_0_29
*28 FILLER_0_0_41
*29 FILLER_0_0_8
*30 FILLER_0_10_23
*31 FILLER_0_10_27
*32 FILLER_0_10_35
*33 FILLER_0_10_43
*34 FILLER_0_10_47
*35 FILLER_0_11_15
*36 FILLER_0_11_3
*37 FILLER_0_11_38
*38 FILLER_0_11_46
*39 FILLER_0_12_21
*40 FILLER_0_12_27
*41 FILLER_0_12_32
*42 FILLER_0_12_44
*43 FILLER_0_12_9
*44 FILLER_0_1_13
*45 FILLER_0_1_25
*46 FILLER_0_1_3
*47 FILLER_0_1_37
*48 FILLER_0_1_45
*49 FILLER_0_2_15
*50 FILLER_0_2_27
*51 FILLER_0_2_29
*52 FILLER_0_2_3
*53 FILLER_0_2_41
*54 FILLER_0_2_47
*55 FILLER_0_3_15
*56 FILLER_0_3_27
*57 FILLER_0_3_3
*58 FILLER_0_3_39
*59 FILLER_0_4_15
*60 FILLER_0_4_27
*61 FILLER_0_4_29
*62 FILLER_0_4_3
*63 FILLER_0_4_41
*64 FILLER_0_5_15
*65 FILLER_0_5_27
*66 FILLER_0_5_3
*67 FILLER_0_5_39
*68 FILLER_0_5_47
*69 FILLER_0_6_15
*70 FILLER_0_6_19
*71 FILLER_0_6_27
*72 FILLER_0_6_29
*73 FILLER_0_6_3
*74 FILLER_0_6_37
*75 FILLER_0_6_42
*76 FILLER_0_7_3
*77 FILLER_0_7_46
*78 FILLER_0_8_29
*79 FILLER_0_8_3
*80 FILLER_0_8_40
*81 FILLER_0_8_7
*82 FILLER_0_9_43
*83 PHY_EDGE_ROW_0_Left_13
*84 PHY_EDGE_ROW_0_Right_0
*85 PHY_EDGE_ROW_10_Left_23
*86 PHY_EDGE_ROW_10_Right_10
*87 PHY_EDGE_ROW_11_Left_24
*88 PHY_EDGE_ROW_11_Right_11
*89 PHY_EDGE_ROW_12_Left_25
*90 PHY_EDGE_ROW_12_Right_12
*91 PHY_EDGE_ROW_1_Left_14
*92 PHY_EDGE_ROW_1_Right_1
*93 PHY_EDGE_ROW_2_Left_15
*94 PHY_EDGE_ROW_2_Right_2
*95 PHY_EDGE_ROW_3_Left_16
*96 PHY_EDGE_ROW_3_Right_3
*97 PHY_EDGE_ROW_4_Left_17
*98 PHY_EDGE_ROW_4_Right_4
*99 PHY_EDGE_ROW_5_Left_18
*100 PHY_EDGE_ROW_5_Right_5
*101 PHY_EDGE_ROW_6_Left_19
*102 PHY_EDGE_ROW_6_Right_6
*103 PHY_EDGE_ROW_7_Left_20
*104 PHY_EDGE_ROW_7_Right_7
*105 PHY_EDGE_ROW_8_Left_21
*106 PHY_EDGE_ROW_8_Right_8
*107 PHY_EDGE_ROW_9_Left_22
*108 PHY_EDGE_ROW_9_Right_9
*109 TAP_TAPCELL_ROW_0_26
*110 TAP_TAPCELL_ROW_10_31
*111 TAP_TAPCELL_ROW_12_32
*112 TAP_TAPCELL_ROW_2_27
*113 TAP_TAPCELL_ROW_4_28
*114 TAP_TAPCELL_ROW_6_29
*115 TAP_TAPCELL_ROW_8_30
*116 _09_
*117 _10_
*118 _11_
*119 _12_
*120 _13_
*121 _14_
*122 _15_
*123 _16_
*124 _17_
*125 _18_
*126 _19_
*127 _20_
*128 _21_
*129 clkbuf_0_clk
*130 clkbuf_1_0__f_clk
*131 clkbuf_1_1__f_clk
*132 clkload0
*133 input1
*134 output2
*135 output3
*136 output4
*137 output5

*PORTS
clk I
count[0] O
count[1] O
count[2] O
count[3] O
rst I

*D_NET *3 0.00460286
*CONN
*P clk I
*I *129:A I *D sky130_fd_sc_hd__clkbuf_16
*CAP
1 clk 0.00181646
2 *129:A 0.00181646
3 *129:A *131:A 9.20345e-05
4 *129:A *137:A 0.000225307
5 *129:A *15:10 0
6 *129:A *24:10 5.59013e-05
7 *129:A *25:29 0.000596693
*RES
1 clk *129:A 43.9944 
*END

*D_NET *4 0.000594901
*CONN
*P count[0] O
*I *134:X O *D sky130_fd_sc_hd__buf_1
*CAP
1 count[0] 0.000297451
2 *134:X 0.000297451
*RES
1 *134:X count[0] 19.8722 
*END

*D_NET *5 0.000548212
*CONN
*P count[1] O
*I *135:X O *D sky130_fd_sc_hd__buf_1
*CAP
1 count[1] 0.000242733
2 *135:X 0.000242733
3 count[1] *120:C 6.27457e-05
*RES
1 *135:X count[1] 19.2651 
*END

*D_NET *6 0.00054054
*CONN
*P count[2] O
*I *136:X O *D sky130_fd_sc_hd__buf_1
*CAP
1 count[2] 0.00027027
2 *136:X 0.00027027
3 count[2] *117:A_N 0
*RES
1 *136:X count[2] 19.2651 
*END

*D_NET *7 0.000755037
*CONN
*P count[3] O
*I *137:X O *D sky130_fd_sc_hd__buf_1
*CAP
1 count[3] 0.000377519
2 *137:X 0.000377519
*RES
1 *137:X count[3] 21.6936 
*END

*D_NET *8 0.00101458
*CONN
*P rst I
*I *133:A I *D sky130_fd_sc_hd__buf_1
*CAP
1 rst 0.000507292
2 *133:A 0.000507292
*RES
1 rst *133:A 23.3714 
*END

*D_NET *9 0.00106393
*CONN
*I *125:D I *D sky130_fd_sc_hd__dfrtp_2
*I *118:X O *D sky130_fd_sc_hd__clkbuf_1
*CAP
1 *125:D 0.000364954
2 *118:X 0.000364954
3 *125:D *116:A 0
4 *125:D *118:A 0.000168897
5 *125:D *15:10 0.000128154
6 *125:D *25:29 3.69697e-05
*RES
1 *118:X *125:D 33.475 
*END

*D_NET *10 0.000485028
*CONN
*I *126:D I *D sky130_fd_sc_hd__dfrtp_1
*I *119:X O *D sky130_fd_sc_hd__xor2_1
*CAP
1 *126:D 0.000120873
2 *119:X 0.000120873
3 *126:D *134:A 2.72545e-05
4 *126:D *22:51 3.69697e-05
5 *126:D *23:27 0.000125724
6 *126:D *23:36 5.33334e-05
*RES
1 *119:X *126:D 30.1893 
*END

*D_NET *11 0.00216601
*CONN
*I *127:D I *D sky130_fd_sc_hd__dfrtp_1
*I *123:X O *D sky130_fd_sc_hd__clkbuf_1
*CAP
1 *127:D 0.000769967
2 *123:X 0.000769967
3 *127:D *126:CLK 0.00015534
4 *127:D *127:CLK 2.89016e-05
5 *127:D *127:RESET_B 2.48016e-05
6 *127:D *18:8 7.84156e-05
7 *127:D *21:14 0.000244448
8 *127:D *24:10 9.41642e-05
9 *127:D *24:25 0
*RES
1 *123:X *127:D 42.225 
*END

*D_NET *12 0.00171273
*CONN
*I *128:D I *D sky130_fd_sc_hd__dfrtp_1
*I *124:Y O *D sky130_fd_sc_hd__xnor2_1
*CAP
1 *128:D 0.000856364
2 *124:Y 0.000856364
3 *128:D *122:A 0
4 *128:D *17:10 0
*RES
1 *124:Y *128:D 42.3321 
*END

*D_NET *13 0.00279061
*CONN
*I *118:A I *D sky130_fd_sc_hd__clkbuf_1
*I *117:X O *D sky130_fd_sc_hd__and2b_1
*CAP
1 *118:A 0.000612589
2 *117:X 0.000612589
3 *118:A *117:A_N 0.000434746
4 *118:A *117:B 0.000232399
5 *118:A *120:A 0.000225609
6 *118:A *14:10 0.000491983
7 *118:A *16:12 0
8 *118:A *22:10 1.17968e-05
9 *125:D *118:A 0.000168897
*RES
1 *117:X *118:A 45.9393 
*END

*D_NET *14 0.00457091
*CONN
*I *124:B I *D sky130_fd_sc_hd__xnor2_1
*I *122:B I *D sky130_fd_sc_hd__and3_1
*I *120:Y O *D sky130_fd_sc_hd__nand3_1
*CAP
1 *124:B 4.76865e-05
2 *122:B 0.000334076
3 *120:Y 0.00145287
4 *14:10 0.00183464
5 *122:B *122:A 0
6 *122:B *122:C 2.18999e-05
7 *122:B *16:12 0.000273821
8 *124:B *124:A 9.83388e-05
9 *14:10 *120:A 1.56e-05
10 *14:10 *122:A 0
11 *118:A *14:10 0.000491983
*RES
1 *120:Y *14:10 35.8536 
2 *14:10 *122:B 18.8536 
3 *14:10 *124:B 14.7464 
*END

*D_NET *15 0.00445724
*CONN
*I *122:C I *D sky130_fd_sc_hd__and3_1
*I *121:X O *D sky130_fd_sc_hd__a21o_1
*CAP
1 *122:C 0.000507743
2 *121:X 0.000981588
3 *15:10 0.00148933
4 *122:C *137:A 0.00014285
5 *122:C *16:12 0.000310999
6 *15:10 *116:A 0
7 *15:10 *125:CLK 0
8 *15:10 *131:A 0
9 *15:10 *136:A 0.000155761
10 *15:10 *137:A 8.05006e-05
11 *15:10 *16:12 0
12 *15:10 *21:14 5.01213e-05
13 *15:10 *24:10 0
14 *15:10 *24:25 0.000217371
15 *15:10 *25:29 0.000370924
16 *122:B *122:C 2.18999e-05
17 *125:D *15:10 0.000128154
18 *129:A *15:10 0
*RES
1 *121:X *15:10 42.4071 
2 *15:10 *122:C 19.1393 
*END

*D_NET *16 0.00470239
*CONN
*I *123:A I *D sky130_fd_sc_hd__clkbuf_1
*I *122:X O *D sky130_fd_sc_hd__and3_1
*CAP
1 *123:A 0.00012016
2 *122:X 0.00136716
3 *16:12 0.00148732
4 *123:A *126:CLK 0.000186669
5 *16:12 *136:A 0.000415462
6 *16:12 *137:A 0.000170964
7 *16:12 *22:10 0
8 *16:12 *24:25 0.000369825
9 *118:A *16:12 0
10 *122:B *16:12 0.000273821
11 *122:C *16:12 0.000310999
12 *15:10 *16:12 0
*RES
1 *122:X *16:12 48.05 
2 *16:12 *123:A 11.8893 
*END

*D_NET *17 0.00568282
*CONN
*I *117:B I *D sky130_fd_sc_hd__and2b_1
*I *122:A I *D sky130_fd_sc_hd__and3_1
*I *116:X O *D sky130_fd_sc_hd__or4b_1
*CAP
1 *117:B 0.0010805
2 *122:A 0.000405755
3 *116:X 0.00122674
4 *17:10 0.00271299
5 *117:B *117:A_N 2.44318e-05
6 *17:10 *128:CLK 0
7 *17:10 *132:A 0
8 *17:10 *19:10 0
9 *118:A *117:B 0.000232399
10 *122:B *122:A 0
11 *128:D *122:A 0
12 *128:D *17:10 0
13 *14:10 *122:A 0
*RES
1 *116:X *17:10 35.1214 
2 *17:10 *122:A 21.2107 
3 *17:10 *117:B 30.3536 
*END

*D_NET *18 0.00302831
*CONN
*I *130:A I *D sky130_fd_sc_hd__clkbuf_16
*I *131:A I *D sky130_fd_sc_hd__clkbuf_16
*I *129:X O *D sky130_fd_sc_hd__clkbuf_16
*CAP
1 *130:A 3.53761e-05
2 *131:A 0.000528316
3 *129:X 0.000469459
4 *18:8 0.00103315
5 *130:A *116:A 9.4724e-05
6 *130:A *24:10 5.33882e-05
7 *131:A *116:A 0.000222892
8 *131:A *24:10 2.26327e-05
9 *18:8 *21:14 0.000397924
10 *127:D *18:8 7.84156e-05
11 *129:A *131:A 9.20345e-05
12 *15:10 *131:A 0
*RES
1 *129:X *18:8 20.0857 
2 *18:8 *131:A 23.6393 
3 *18:8 *130:A 15.1393 
*END

*D_NET *19 0.00188603
*CONN
*I *132:A I *D sky130_fd_sc_hd__clkbuf_4
*I *127:CLK I *D sky130_fd_sc_hd__dfrtp_1
*I *128:CLK I *D sky130_fd_sc_hd__dfrtp_1
*I *130:X O *D sky130_fd_sc_hd__clkbuf_16
*CAP
1 *132:A 0.000215737
2 *127:CLK 0.000138477
3 *128:CLK 0.000368667
4 *130:X 5.05962e-05
5 *19:10 0.00066223
6 *19:8 0.000421419
7 *127:D *127:CLK 2.89016e-05
8 *17:10 *128:CLK 0
9 *17:10 *132:A 0
10 *17:10 *19:10 0
*RES
1 *130:X *19:8 14.3357 
2 *19:8 *19:10 2.85714 
3 *19:10 *128:CLK 20.1571 
4 *19:10 *127:CLK 15.9964 
5 *19:8 *132:A 17.5679 
*END

*D_NET *20 0.00213205
*CONN
*I *126:CLK I *D sky130_fd_sc_hd__dfrtp_1
*I *125:CLK I *D sky130_fd_sc_hd__dfrtp_2
*I *131:X O *D sky130_fd_sc_hd__clkbuf_16
*CAP
1 *126:CLK 0.000560694
2 *125:CLK 0.000208242
3 *131:X 0
4 *20:4 0.000768936
5 *125:CLK *116:A 0
6 *126:CLK *134:A 5.83304e-05
7 *126:CLK *22:36 0
8 *126:CLK *22:51 0.00019384
9 *126:CLK *23:47 0
10 *126:CLK *24:25 0
11 *123:A *126:CLK 0.000186669
12 *127:D *126:CLK 0.00015534
13 *15:10 *125:CLK 0
*RES
1 *131:X *20:4 9.3 
2 *20:4 *125:CLK 21.8 
3 *20:4 *126:CLK 29.6393 
*END

*D_NET *21 0.00395746
*CONN
*I *126:RESET_B I *D sky130_fd_sc_hd__dfrtp_1
*I *125:RESET_B I *D sky130_fd_sc_hd__dfrtp_2
*I *128:RESET_B I *D sky130_fd_sc_hd__dfrtp_1
*I *127:RESET_B I *D sky130_fd_sc_hd__dfrtp_1
*I *133:X O *D sky130_fd_sc_hd__buf_1
*CAP
1 *126:RESET_B 4.71781e-05
2 *125:RESET_B 0.00048165
3 *128:RESET_B 0.000737362
4 *127:RESET_B 2.84435e-05
5 *133:X 7.98804e-05
6 *21:14 0.000641974
7 *21:8 0.000484876
8 *125:RESET_B *116:A 1.51657e-05
9 *125:RESET_B *25:29 1.05823e-05
10 *126:RESET_B *23:27 4.96155e-05
11 *128:RESET_B *116:A 0.000414755
12 *21:8 *116:D_N 0
13 *21:8 *134:A 0
14 *21:14 *116:D_N 0
15 *21:14 *134:A 0
16 *21:14 *23:27 9.97744e-05
17 *21:14 *24:10 0
18 *21:14 *24:25 0.000148903
19 *127:D *127:RESET_B 2.48016e-05
20 *127:D *21:14 0.000244448
21 *15:10 *21:14 5.01213e-05
22 *18:8 *21:14 0.000397924
*RES
1 *133:X *21:8 15.1393 
2 *21:8 *21:14 14.125 
3 *21:14 *127:RESET_B 0.473214 
4 *21:14 *128:RESET_B 14.2857 
5 *128:RESET_B *125:RESET_B 6.625 
6 *21:8 *126:RESET_B 5.38393 
*END

*D_NET *22 0.00752315
*CONN
*I *119:A I *D sky130_fd_sc_hd__xor2_1
*I *134:A I *D sky130_fd_sc_hd__buf_1
*I *116:B I *D sky130_fd_sc_hd__or4b_1
*I *121:A1 I *D sky130_fd_sc_hd__a21o_1
*I *120:B I *D sky130_fd_sc_hd__nand3_1
*I *117:A_N I *D sky130_fd_sc_hd__and2b_1
*I *125:Q O *D sky130_fd_sc_hd__dfrtp_2
*CAP
1 *119:A 1.91209e-05
2 *134:A 0.000390301
3 *116:B 0.000705136
4 *121:A1 9.53113e-05
5 *120:B 0
6 *117:A_N 0.00044703
7 *125:Q 0
8 *22:51 0.0011993
9 *22:40 0.000313053
10 *22:36 0.000504699
11 *22:10 0.000778191
12 *22:4 0.000702863
13 *116:B *116:C 0.000231002
14 *116:B *23:27 0.000447828
15 *119:A *23:36 0
16 *121:A1 *23:27 3.18676e-05
17 *121:A1 *23:36 2.77173e-05
18 *22:10 *120:C 0
19 *22:36 *120:C 0.000471823
20 *22:36 *23:36 3.18676e-05
21 *22:36 *23:47 0.000213126
22 *22:40 *23:36 9.7659e-05
23 *22:51 *23:27 2.78822e-05
24 *22:51 *24:25 0
25 count[2] *117:A_N 0
26 *117:B *117:A_N 2.44318e-05
27 *118:A *117:A_N 0.000434746
28 *118:A *22:10 1.17968e-05
29 *126:CLK *134:A 5.83304e-05
30 *126:CLK *22:36 0
31 *126:CLK *22:51 0.00019384
32 *126:D *134:A 2.72545e-05
33 *126:D *22:51 3.69697e-05
34 *16:12 *22:10 0
35 *21:8 *134:A 0
36 *21:14 *134:A 0
*RES
1 *125:Q *22:4 9.3 
2 *22:4 *22:10 8.92857 
3 *22:10 *117:A_N 24.0143 
4 *22:10 *120:B 13.8 
5 *22:4 *22:36 18.4821 
6 *22:36 *22:40 2.19643 
7 *22:40 *121:A1 10.6571 
8 *22:40 *22:51 7.05357 
9 *22:51 *116:B 23.3714 
10 *22:51 *134:A 20.7821 
11 *22:36 *119:A 9.72857 
*END

*D_NET *23 0.00474624
*CONN
*I *135:A I *D sky130_fd_sc_hd__buf_1
*I *120:C I *D sky130_fd_sc_hd__nand3_1
*I *119:B I *D sky130_fd_sc_hd__xor2_1
*I *121:A2 I *D sky130_fd_sc_hd__a21o_1
*I *116:C I *D sky130_fd_sc_hd__or4b_1
*I *126:Q O *D sky130_fd_sc_hd__dfrtp_1
*CAP
1 *135:A 0
2 *120:C 0.000397555
3 *119:B 0
4 *121:A2 0
5 *116:C 8.93749e-05
6 *126:Q 0
7 *23:47 0.000594306
8 *23:36 0.000339091
9 *23:27 0.000465881
10 *23:4 0.000412915
11 *116:C *116:A 0.000283715
12 *23:27 *116:A 0.000142152
13 *23:27 *116:D_N 4.0028e-05
14 *23:27 *24:25 9.25014e-06
15 count[1] *120:C 6.27457e-05
16 *116:B *116:C 0.000231002
17 *116:B *23:27 0.000447828
18 *119:A *23:36 0
19 *121:A1 *23:27 3.18676e-05
20 *121:A1 *23:36 2.77173e-05
21 *126:CLK *23:47 0
22 *126:D *23:27 0.000125724
23 *126:D *23:36 5.33334e-05
24 *126:RESET_B *23:27 4.96155e-05
25 *21:14 *23:27 9.97744e-05
26 *22:10 *120:C 0
27 *22:36 *120:C 0.000471823
28 *22:36 *23:36 3.18676e-05
29 *22:36 *23:47 0.000213126
30 *22:40 *23:36 9.7659e-05
31 *22:51 *23:27 2.78822e-05
*RES
1 *126:Q *23:4 9.3 
2 *23:4 *116:C 12.7286 
3 *23:4 *23:27 18.9286 
4 *23:27 *121:A2 9.3 
5 *23:27 *23:36 3.42857 
6 *23:36 *119:B 9.3 
7 *23:36 *23:47 8.82143 
8 *23:47 *120:C 23.2821 
9 *23:47 *135:A 13.8 
*END

*D_NET *24 0.00578199
*CONN
*I *116:D_N I *D sky130_fd_sc_hd__or4b_1
*I *120:A I *D sky130_fd_sc_hd__nand3_1
*I *136:A I *D sky130_fd_sc_hd__buf_1
*I *121:B1 I *D sky130_fd_sc_hd__a21o_1
*I *127:Q O *D sky130_fd_sc_hd__dfrtp_1
*CAP
1 *116:D_N 0.000508052
2 *120:A 0.000139076
3 *136:A 0.000486494
4 *121:B1 0
5 *127:Q 0.000190521
6 *24:25 0.000990632
7 *24:14 0.000558249
8 *24:10 0.000891759
9 *116:D_N *116:A 0.000183271
10 *24:10 *116:A 1.00375e-05
11 *118:A *120:A 0.000225609
12 *126:CLK *24:25 0
13 *127:D *24:10 9.41642e-05
14 *127:D *24:25 0
15 *129:A *24:10 5.59013e-05
16 *130:A *24:10 5.33882e-05
17 *131:A *24:10 2.26327e-05
18 *14:10 *120:A 1.56e-05
19 *15:10 *136:A 0.000155761
20 *15:10 *24:10 0
21 *15:10 *24:25 0.000217371
22 *16:12 *136:A 0.000415462
23 *16:12 *24:25 0.000369825
24 *21:8 *116:D_N 0
25 *21:14 *116:D_N 0
26 *21:14 *24:10 0
27 *21:14 *24:25 0.000148903
28 *22:51 *24:25 0
29 *23:27 *116:D_N 4.0028e-05
30 *23:27 *24:25 9.25014e-06
*RES
1 *127:Q *24:10 17.6036 
2 *24:10 *24:14 7.5 
3 *24:14 *121:B1 9.3 
4 *24:14 *24:25 14.5714 
5 *24:25 *136:A 24.55 
6 *24:25 *120:A 16.8179 
7 *24:10 *116:D_N 21.925 
*END

*D_NET *25 0.00751978
*CONN
*I *124:A I *D sky130_fd_sc_hd__xnor2_1
*I *137:A I *D sky130_fd_sc_hd__buf_1
*I *116:A I *D sky130_fd_sc_hd__or4b_1
*I *128:Q O *D sky130_fd_sc_hd__dfrtp_1
*CAP
1 *124:A 0.000404825
2 *137:A 0.000466967
3 *116:A 0.000692738
4 *128:Q 0
5 *25:29 0.00151723
6 *25:4 0.00133818
7 *116:C *116:A 0.000283715
8 *116:D_N *116:A 0.000183271
9 *122:C *137:A 0.00014285
10 *124:B *124:A 9.83388e-05
11 *125:CLK *116:A 0
12 *125:D *116:A 0
13 *125:D *25:29 3.69697e-05
14 *125:RESET_B *116:A 1.51657e-05
15 *125:RESET_B *25:29 1.05823e-05
16 *128:RESET_B *116:A 0.000414755
17 *129:A *137:A 0.000225307
18 *129:A *25:29 0.000596693
19 *130:A *116:A 9.4724e-05
20 *131:A *116:A 0.000222892
21 *15:10 *116:A 0
22 *15:10 *137:A 8.05006e-05
23 *15:10 *25:29 0.000370924
24 *16:12 *137:A 0.000170964
25 *23:27 *116:A 0.000142152
26 *24:10 *116:A 1.00375e-05
*RES
1 *128:Q *25:4 9.3 
2 *25:4 *116:A 35.7107 
3 *25:4 *25:29 19.2321 
4 *25:29 *137:A 24.5857 
5 *25:29 *124:A 20.4964 
*END
