* NGSPICE file created from labwork2_src.ext - technology: sky130A

* Black-box entry subcircuit for sky130_fd_sc_hd__tapvpwrvgnd_1 abstract view
.subckt sky130_fd_sc_hd__tapvpwrvgnd_1 VGND VPWR
.ends

* Black-box entry subcircuit for sky130_fd_sc_hd__xor2_1 abstract view
.subckt sky130_fd_sc_hd__xor2_1 A B VGND VNB VPB VPWR X
.ends

* Black-box entry subcircuit for sky130_fd_sc_hd__or3_1 abstract view
.subckt sky130_fd_sc_hd__or3_1 A B C VGND VNB VPB VPWR X
.ends

* Black-box entry subcircuit for sky130_ef_sc_hd__decap_12 abstract view
.subckt sky130_ef_sc_hd__decap_12 VPWR VGND VPB VNB
.ends

* Black-box entry subcircuit for sky130_fd_sc_hd__and2b_1 abstract view
.subckt sky130_fd_sc_hd__and2b_1 A_N B VGND VNB VPB VPWR X
.ends

* Black-box entry subcircuit for sky130_fd_sc_hd__nand2_1 abstract view
.subckt sky130_fd_sc_hd__nand2_1 A B VGND VNB VPB VPWR Y
.ends

* Black-box entry subcircuit for sky130_fd_sc_hd__xnor2_1 abstract view
.subckt sky130_fd_sc_hd__xnor2_1 A B VGND VNB VPB VPWR Y
.ends

* Black-box entry subcircuit for sky130_fd_sc_hd__decap_8 abstract view
.subckt sky130_fd_sc_hd__decap_8 VGND VNB VPB VPWR
.ends

* Black-box entry subcircuit for sky130_fd_sc_hd__decap_3 abstract view
.subckt sky130_fd_sc_hd__decap_3 VGND VNB VPB VPWR
.ends

* Black-box entry subcircuit for sky130_fd_sc_hd__fill_1 abstract view
.subckt sky130_fd_sc_hd__fill_1 VGND VNB VPB VPWR
.ends

* Black-box entry subcircuit for sky130_fd_sc_hd__buf_2 abstract view
.subckt sky130_fd_sc_hd__buf_2 A VGND VNB VPB VPWR X
.ends

* Black-box entry subcircuit for sky130_fd_sc_hd__o21a_1 abstract view
.subckt sky130_fd_sc_hd__o21a_1 A1 A2 B1 VGND VNB VPB VPWR X
.ends

* Black-box entry subcircuit for sky130_fd_sc_hd__a31o_1 abstract view
.subckt sky130_fd_sc_hd__a31o_1 A1 A2 A3 B1 VGND VNB VPB VPWR X
.ends

* Black-box entry subcircuit for sky130_fd_sc_hd__a311oi_4 abstract view
.subckt sky130_fd_sc_hd__a311oi_4 A1 A2 A3 B1 C1 VGND VNB VPB VPWR Y
.ends

* Black-box entry subcircuit for sky130_fd_sc_hd__xnor2_2 abstract view
.subckt sky130_fd_sc_hd__xnor2_2 A B VGND VNB VPB VPWR Y
.ends

* Black-box entry subcircuit for sky130_fd_sc_hd__a21oi_1 abstract view
.subckt sky130_fd_sc_hd__a21oi_1 A1 A2 B1 VGND VNB VPB VPWR Y
.ends

* Black-box entry subcircuit for sky130_fd_sc_hd__or2b_1 abstract view
.subckt sky130_fd_sc_hd__or2b_1 A B_N VGND VNB VPB VPWR X
.ends

* Black-box entry subcircuit for sky130_fd_sc_hd__a21o_1 abstract view
.subckt sky130_fd_sc_hd__a21o_1 A1 A2 B1 VGND VNB VPB VPWR X
.ends

* Black-box entry subcircuit for sky130_fd_sc_hd__decap_4 abstract view
.subckt sky130_fd_sc_hd__decap_4 VGND VNB VPB VPWR
.ends

* Black-box entry subcircuit for sky130_fd_sc_hd__xnor2_4 abstract view
.subckt sky130_fd_sc_hd__xnor2_4 A B VGND VNB VPB VPWR Y
.ends

* Black-box entry subcircuit for sky130_fd_sc_hd__fill_2 abstract view
.subckt sky130_fd_sc_hd__fill_2 VGND VNB VPB VPWR
.ends

* Black-box entry subcircuit for sky130_fd_sc_hd__o22a_1 abstract view
.subckt sky130_fd_sc_hd__o22a_1 A1 A2 B1 B2 VGND VNB VPB VPWR X
.ends

* Black-box entry subcircuit for sky130_fd_sc_hd__a311o_4 abstract view
.subckt sky130_fd_sc_hd__a311o_4 A1 A2 A3 B1 C1 VGND VNB VPB VPWR X
.ends

* Black-box entry subcircuit for sky130_fd_sc_hd__decap_6 abstract view
.subckt sky130_fd_sc_hd__decap_6 VGND VNB VPB VPWR
.ends

* Black-box entry subcircuit for sky130_fd_sc_hd__inv_2 abstract view
.subckt sky130_fd_sc_hd__inv_2 A VGND VNB VPB VPWR Y
.ends

* Black-box entry subcircuit for sky130_fd_sc_hd__o21bai_1 abstract view
.subckt sky130_fd_sc_hd__o21bai_1 A1 A2 B1_N VGND VNB VPB VPWR Y
.ends

* Black-box entry subcircuit for sky130_fd_sc_hd__nand2_2 abstract view
.subckt sky130_fd_sc_hd__nand2_2 A B VGND VNB VPB VPWR Y
.ends

* Black-box entry subcircuit for sky130_fd_sc_hd__o21bai_4 abstract view
.subckt sky130_fd_sc_hd__o21bai_4 A1 A2 B1_N VGND VNB VPB VPWR Y
.ends

* Black-box entry subcircuit for sky130_fd_sc_hd__a21oi_2 abstract view
.subckt sky130_fd_sc_hd__a21oi_2 A1 A2 B1 VGND VNB VPB VPWR Y
.ends

* Black-box entry subcircuit for sky130_fd_sc_hd__or2_1 abstract view
.subckt sky130_fd_sc_hd__or2_1 A B VGND VNB VPB VPWR X
.ends

* Black-box entry subcircuit for sky130_fd_sc_hd__and4_1 abstract view
.subckt sky130_fd_sc_hd__and4_1 A B C D VGND VNB VPB VPWR X
.ends

* Black-box entry subcircuit for sky130_fd_sc_hd__a311o_1 abstract view
.subckt sky130_fd_sc_hd__a311o_1 A1 A2 A3 B1 C1 VGND VNB VPB VPWR X
.ends

* Black-box entry subcircuit for sky130_fd_sc_hd__nand2_4 abstract view
.subckt sky130_fd_sc_hd__nand2_4 A B VGND VNB VPB VPWR Y
.ends

* Black-box entry subcircuit for sky130_fd_sc_hd__nor2_1 abstract view
.subckt sky130_fd_sc_hd__nor2_1 A B VGND VNB VPB VPWR Y
.ends

* Black-box entry subcircuit for sky130_fd_sc_hd__nor2_2 abstract view
.subckt sky130_fd_sc_hd__nor2_2 A B VGND VNB VPB VPWR Y
.ends

* Black-box entry subcircuit for sky130_fd_sc_hd__a22oi_4 abstract view
.subckt sky130_fd_sc_hd__a22oi_4 A1 A2 B1 B2 VGND VNB VPB VPWR Y
.ends

* Black-box entry subcircuit for sky130_fd_sc_hd__o21ai_1 abstract view
.subckt sky130_fd_sc_hd__o21ai_1 A1 A2 B1 VGND VNB VPB VPWR Y
.ends

* Black-box entry subcircuit for sky130_fd_sc_hd__and2_4 abstract view
.subckt sky130_fd_sc_hd__and2_4 A B VGND VNB VPB VPWR X
.ends

* Black-box entry subcircuit for sky130_fd_sc_hd__buf_4 abstract view
.subckt sky130_fd_sc_hd__buf_4 A VGND VNB VPB VPWR X
.ends

* Black-box entry subcircuit for sky130_fd_sc_hd__o31a_2 abstract view
.subckt sky130_fd_sc_hd__o31a_2 A1 A2 A3 B1 VGND VNB VPB VPWR X
.ends

* Black-box entry subcircuit for sky130_fd_sc_hd__o211ai_2 abstract view
.subckt sky130_fd_sc_hd__o211ai_2 A1 A2 B1 C1 VGND VNB VPB VPWR Y
.ends

* Black-box entry subcircuit for sky130_fd_sc_hd__nand3b_4 abstract view
.subckt sky130_fd_sc_hd__nand3b_4 A_N B C VGND VNB VPB VPWR Y
.ends

* Black-box entry subcircuit for sky130_fd_sc_hd__o21ai_4 abstract view
.subckt sky130_fd_sc_hd__o21ai_4 A1 A2 B1 VGND VNB VPB VPWR Y
.ends

* Black-box entry subcircuit for sky130_fd_sc_hd__or2_4 abstract view
.subckt sky130_fd_sc_hd__or2_4 A B VGND VNB VPB VPWR X
.ends

* Black-box entry subcircuit for sky130_fd_sc_hd__a22o_1 abstract view
.subckt sky130_fd_sc_hd__a22o_1 A1 A2 B1 B2 VGND VNB VPB VPWR X
.ends

* Black-box entry subcircuit for sky130_fd_sc_hd__nor3_2 abstract view
.subckt sky130_fd_sc_hd__nor3_2 A B C VGND VNB VPB VPWR Y
.ends

* Black-box entry subcircuit for sky130_fd_sc_hd__a21bo_1 abstract view
.subckt sky130_fd_sc_hd__a21bo_1 A1 A2 B1_N VGND VNB VPB VPWR X
.ends

* Black-box entry subcircuit for sky130_fd_sc_hd__o221a_1 abstract view
.subckt sky130_fd_sc_hd__o221a_1 A1 A2 B1 B2 C1 VGND VNB VPB VPWR X
.ends

* Black-box entry subcircuit for sky130_fd_sc_hd__buf_1 abstract view
.subckt sky130_fd_sc_hd__buf_1 A VGND VNB VPB VPWR X
.ends

* Black-box entry subcircuit for sky130_fd_sc_hd__clkbuf_2 abstract view
.subckt sky130_fd_sc_hd__clkbuf_2 A VGND VNB VPB VPWR X
.ends

* Black-box entry subcircuit for sky130_fd_sc_hd__and3_1 abstract view
.subckt sky130_fd_sc_hd__and3_1 A B C VGND VNB VPB VPWR X
.ends

* Black-box entry subcircuit for sky130_fd_sc_hd__a211o_1 abstract view
.subckt sky130_fd_sc_hd__a211o_1 A1 A2 B1 C1 VGND VNB VPB VPWR X
.ends

* Black-box entry subcircuit for sky130_fd_sc_hd__or3b_1 abstract view
.subckt sky130_fd_sc_hd__or3b_1 A B C_N VGND VNB VPB VPWR X
.ends

* Black-box entry subcircuit for sky130_fd_sc_hd__clkbuf_4 abstract view
.subckt sky130_fd_sc_hd__clkbuf_4 A VGND VNB VPB VPWR X
.ends

* Black-box entry subcircuit for sky130_fd_sc_hd__nand3_2 abstract view
.subckt sky130_fd_sc_hd__nand3_2 A B C VGND VNB VPB VPWR Y
.ends

* Black-box entry subcircuit for sky130_fd_sc_hd__o31a_1 abstract view
.subckt sky130_fd_sc_hd__o31a_1 A1 A2 A3 B1 VGND VNB VPB VPWR X
.ends

* Black-box entry subcircuit for sky130_fd_sc_hd__dlymetal6s2s_1 abstract view
.subckt sky130_fd_sc_hd__dlymetal6s2s_1 A VGND VNB VPB VPWR X
.ends

* Black-box entry subcircuit for sky130_fd_sc_hd__a221o_1 abstract view
.subckt sky130_fd_sc_hd__a221o_1 A1 A2 B1 B2 C1 VGND VNB VPB VPWR X
.ends

* Black-box entry subcircuit for sky130_fd_sc_hd__and2_2 abstract view
.subckt sky130_fd_sc_hd__and2_2 A B VGND VNB VPB VPWR X
.ends

* Black-box entry subcircuit for sky130_fd_sc_hd__clkbuf_1 abstract view
.subckt sky130_fd_sc_hd__clkbuf_1 A VGND VNB VPB VPWR X
.ends

* Black-box entry subcircuit for sky130_fd_sc_hd__and3_2 abstract view
.subckt sky130_fd_sc_hd__and3_2 A B C VGND VNB VPB VPWR X
.ends

* Black-box entry subcircuit for sky130_fd_sc_hd__or4b_1 abstract view
.subckt sky130_fd_sc_hd__or4b_1 A B C D_N VGND VNB VPB VPWR X
.ends

* Black-box entry subcircuit for sky130_fd_sc_hd__nand3_1 abstract view
.subckt sky130_fd_sc_hd__nand3_1 A B C VGND VNB VPB VPWR Y
.ends

* Black-box entry subcircuit for sky130_fd_sc_hd__and3b_2 abstract view
.subckt sky130_fd_sc_hd__and3b_2 A_N B C VGND VNB VPB VPWR X
.ends

* Black-box entry subcircuit for sky130_fd_sc_hd__or3_4 abstract view
.subckt sky130_fd_sc_hd__or3_4 A B C VGND VNB VPB VPWR X
.ends

* Black-box entry subcircuit for sky130_fd_sc_hd__o21a_2 abstract view
.subckt sky130_fd_sc_hd__o21a_2 A1 A2 B1 VGND VNB VPB VPWR X
.ends

* Black-box entry subcircuit for sky130_fd_sc_hd__and3b_1 abstract view
.subckt sky130_fd_sc_hd__and3b_1 A_N B C VGND VNB VPB VPWR X
.ends

* Black-box entry subcircuit for sky130_fd_sc_hd__nor2_4 abstract view
.subckt sky130_fd_sc_hd__nor2_4 A B VGND VNB VPB VPWR Y
.ends

* Black-box entry subcircuit for sky130_fd_sc_hd__or2_2 abstract view
.subckt sky130_fd_sc_hd__or2_2 A B VGND VNB VPB VPWR X
.ends

* Black-box entry subcircuit for sky130_fd_sc_hd__dlygate4sd1_1 abstract view
.subckt sky130_fd_sc_hd__dlygate4sd1_1 A VGND VNB VPB VPWR X
.ends

* Black-box entry subcircuit for sky130_fd_sc_hd__a31oi_1 abstract view
.subckt sky130_fd_sc_hd__a31oi_1 A1 A2 A3 B1 VGND VNB VPB VPWR Y
.ends

* Black-box entry subcircuit for sky130_fd_sc_hd__xor2_2 abstract view
.subckt sky130_fd_sc_hd__xor2_2 A B VGND VNB VPB VPWR X
.ends

.subckt labwork2_src A[0] A[1] A[2] A[3] A[4] A[5] A[6] A[7] B[0] B[1] B[2] B[3] B[4]
+ B[5] B[6] B[7] OPCODE[0] OPCODE[1] OPCODE[2] OUT[0] OUT[1] OUT[2] OUT[3] OUT[4]
+ OUT[5] OUT[6] OUT[7] VGND VPWR
XTAP_TAPCELL_ROW_15_106 VGND VPWR sky130_fd_sc_hd__tapvpwrvgnd_1
X_294_ _048_ _049_ VGND VGND VPWR VPWR _050_ sky130_fd_sc_hd__xor2_1
X_346_ _089_ _092_ _096_ VGND VGND VPWR VPWR _097_ sky130_fd_sc_hd__or3_1
XTAP_TAPCELL_ROW_20_120 VGND VPWR sky130_fd_sc_hd__tapvpwrvgnd_1
XFILLER_0_18_29 VPWR VGND VPWR VGND sky130_ef_sc_hd__decap_12
X_277_ _033_ _023_ VGND VGND VPWR VPWR _034_ sky130_fd_sc_hd__and2b_1
X_200_ _117_ _127_ VGND VGND VPWR VPWR _128_ sky130_fd_sc_hd__nand2_1
XFILLER_0_10_63 VPWR VGND VPWR VGND sky130_ef_sc_hd__decap_12
XFILLER_0_10_85 VPWR VGND VPWR VGND sky130_ef_sc_hd__decap_12
X_329_ _079_ _080_ VGND VGND VPWR VPWR _081_ sky130_fd_sc_hd__xnor2_1
XFILLER_0_19_169 VPWR VGND VPWR VGND sky130_ef_sc_hd__decap_12
XFILLER_0_19_158 VGND VGND VPWR VPWR sky130_fd_sc_hd__decap_8
XPHY_EDGE_ROW_8_Left_36 VGND VGND VPWR VPWR sky130_fd_sc_hd__decap_3
XFILLER_0_15_19 VPWR VGND VPWR VGND sky130_ef_sc_hd__decap_12
XFILLER_0_26_29 VPWR VGND VPWR VGND sky130_ef_sc_hd__decap_12
XFILLER_0_1_61 VGND VGND VPWR VPWR sky130_fd_sc_hd__fill_1
XFILLER_0_21_153 VPWR VGND VPWR VGND sky130_ef_sc_hd__decap_12
XFILLER_0_13_109 VGND VGND VPWR VPWR sky130_fd_sc_hd__decap_3
Xoutput20 net20 VGND VGND VPWR VPWR OUT[0] sky130_fd_sc_hd__buf_2
XTAP_TAPCELL_ROW_18_115 VGND VPWR sky130_fd_sc_hd__tapvpwrvgnd_1
X_293_ net15 _025_ _163_ VGND VGND VPWR VPWR _049_ sky130_fd_sc_hd__o21a_1
XFILLER_0_23_19 VPWR VGND VPWR VGND sky130_ef_sc_hd__decap_12
XPHY_EDGE_ROW_21_Left_49 VGND VGND VPWR VPWR sky130_fd_sc_hd__decap_3
XFILLER_0_13_30 VPWR VGND VPWR VGND sky130_ef_sc_hd__decap_12
XFILLER_0_3_29 VPWR VGND VPWR VGND sky130_ef_sc_hd__decap_12
XTAP_TAPCELL_ROW_20_121 VGND VPWR sky130_fd_sc_hd__tapvpwrvgnd_1
X_345_ _138_ _100_ _093_ _095_ VGND VGND VPWR VPWR _096_ sky130_fd_sc_hd__a31o_1
X_276_ _019_ _166_ _015_ _030_ _029_ VGND VGND VPWR VPWR _033_ sky130_fd_sc_hd__a311oi_4
XPHY_EDGE_ROW_21_Right_21 VGND VGND VPWR VPWR sky130_fd_sc_hd__decap_3
XPHY_EDGE_ROW_12_Right_12 VGND VGND VPWR VPWR sky130_fd_sc_hd__decap_3
XFILLER_0_4_83 VGND VGND VPWR VPWR sky130_fd_sc_hd__fill_1
X_259_ net14 _016_ VGND VGND VPWR VPWR _017_ sky130_fd_sc_hd__xnor2_2
X_328_ _169_ _008_ VGND VGND VPWR VPWR _080_ sky130_fd_sc_hd__nand2_1
XPHY_EDGE_ROW_24_Left_52 VGND VGND VPWR VPWR sky130_fd_sc_hd__decap_3
XFILLER_0_19_126 VPWR VGND VPWR VGND sky130_ef_sc_hd__decap_12
XFILLER_0_19_104 VGND VGND VPWR VPWR sky130_fd_sc_hd__decap_8
XFILLER_0_19_73 VGND VGND VPWR VPWR sky130_fd_sc_hd__fill_1
XFILLER_0_19_40 VPWR VGND VPWR VGND sky130_ef_sc_hd__decap_12
XFILLER_0_10_75 VGND VGND VPWR VPWR sky130_fd_sc_hd__decap_8
XFILLER_0_10_97 VGND VGND VPWR VPWR sky130_fd_sc_hd__decap_3
XFILLER_0_16_129 VGND VGND VPWR VPWR sky130_fd_sc_hd__decap_8
XFILLER_0_26_19 VGND VGND VPWR VPWR sky130_fd_sc_hd__decap_8
XFILLER_0_21_165 VGND VGND VPWR VPWR sky130_fd_sc_hd__decap_3
XFILLER_0_16_85 VPWR VGND VPWR VGND sky130_ef_sc_hd__decap_12
XFILLER_0_16_41 VPWR VGND VPWR VGND sky130_ef_sc_hd__decap_12
XFILLER_0_6_29 VPWR VGND VPWR VGND sky130_ef_sc_hd__decap_12
XPHY_EDGE_ROW_6_Right_6 VGND VGND VPWR VPWR sky130_fd_sc_hd__decap_3
Xoutput21 net21 VGND VGND VPWR VPWR OUT[1] sky130_fd_sc_hd__buf_2
XTAP_TAPCELL_ROW_23_130 VGND VPWR sky130_fd_sc_hd__tapvpwrvgnd_1
X_292_ net16 net8 VGND VGND VPWR VPWR _048_ sky130_fd_sc_hd__xnor2_2
XFILLER_0_13_42 VPWR VGND VPWR VGND sky130_ef_sc_hd__decap_12
X_275_ _029_ _031_ VGND VGND VPWR VPWR _032_ sky130_fd_sc_hd__nand2_1
X_344_ net13 net5 _094_ VGND VGND VPWR VPWR _095_ sky130_fd_sc_hd__a21oi_1
XFILLER_0_24_85 VPWR VGND VPWR VGND sky130_ef_sc_hd__decap_12
X_327_ _012_ _011_ VGND VGND VPWR VPWR _079_ sky130_fd_sc_hd__or2b_1
X_258_ net13 _163_ _164_ VGND VGND VPWR VPWR _016_ sky130_fd_sc_hd__a21o_1
XFILLER_0_19_138 VGND VGND VPWR VPWR sky130_fd_sc_hd__decap_3
XFILLER_0_19_52 VGND VGND VPWR VPWR sky130_fd_sc_hd__decap_4
X_189_ _102_ _116_ VGND VGND VPWR VPWR _117_ sky130_fd_sc_hd__xnor2_4
XFILLER_0_10_10 VGND VGND VPWR VPWR sky130_fd_sc_hd__decap_8
XFILLER_0_21_53 VGND VGND VPWR VPWR sky130_fd_sc_hd__decap_3
XFILLER_0_1_96 VPWR VGND VPWR VGND sky130_ef_sc_hd__decap_12
XFILLER_0_16_53 VPWR VGND VPWR VGND sky130_ef_sc_hd__decap_12
XFILLER_0_12_188 VGND VGND VPWR VPWR sky130_fd_sc_hd__fill_2
Xoutput22 net22 VGND VGND VPWR VPWR OUT[2] sky130_fd_sc_hd__buf_2
XFILLER_0_27_85 VPWR VGND VPWR VGND sky130_ef_sc_hd__decap_12
XFILLER_0_11_7 VPWR VGND VPWR VGND sky130_ef_sc_hd__decap_12
X_291_ _032_ _034_ _047_ VGND VGND VPWR VPWR net26 sky130_fd_sc_hd__a21o_1
XFILLER_0_13_65 VPWR VGND VPWR VGND sky130_ef_sc_hd__decap_12
XFILLER_0_13_54 VGND VGND VPWR VPWR sky130_fd_sc_hd__fill_2
X_343_ net5 _153_ _090_ _158_ VGND VGND VPWR VPWR _094_ sky130_fd_sc_hd__o22a_1
XFILLER_0_0_7 VGND VGND VPWR VPWR sky130_fd_sc_hd__decap_8
X_274_ _019_ _166_ _015_ _030_ VGND VGND VPWR VPWR _031_ sky130_fd_sc_hd__a31o_1
XFILLER_0_24_97 VPWR VGND VPWR VGND sky130_ef_sc_hd__decap_12
XFILLER_0_24_64 VPWR VGND VPWR VGND sky130_ef_sc_hd__decap_12
XFILLER_0_4_41 VGND VGND VPWR VPWR sky130_fd_sc_hd__decap_4
XFILLER_0_4_85 VPWR VGND VPWR VGND sky130_ef_sc_hd__decap_12
X_257_ _169_ _008_ _011_ _012_ _014_ VGND VGND VPWR VPWR _015_ sky130_fd_sc_hd__a311o_4
X_326_ _008_ _023_ _072_ _078_ VGND VGND VPWR VPWR net22 sky130_fd_sc_hd__a31o_1
X_188_ _110_ _115_ VGND VGND VPWR VPWR _116_ sky130_fd_sc_hd__xnor2_4
XFILLER_0_9_19 VPWR VGND VPWR VGND sky130_ef_sc_hd__decap_12
XFILLER_0_10_22 VGND VGND VPWR VPWR sky130_fd_sc_hd__decap_6
X_309_ _101_ _103_ _156_ _062_ VGND VGND VPWR VPWR _063_ sky130_fd_sc_hd__o22a_1
XFILLER_0_25_109 VGND VGND VPWR VPWR sky130_fd_sc_hd__decap_3
XFILLER_0_21_21 VPWR VGND VPWR VGND sky130_ef_sc_hd__decap_12
XFILLER_0_18_150 VPWR VGND VPWR VGND sky130_ef_sc_hd__decap_12
XFILLER_0_24_175 VPWR VGND VPWR VGND sky130_ef_sc_hd__decap_12
XFILLER_0_15_120 VPWR VGND VPWR VGND sky130_ef_sc_hd__decap_12
XTAP_TAPCELL_ROW_10_90 VGND VPWR sky130_fd_sc_hd__tapvpwrvgnd_1
XFILLER_0_16_65 VPWR VGND VPWR VGND sky130_ef_sc_hd__decap_12
XFILLER_0_12_145 VGND VGND VPWR VPWR sky130_fd_sc_hd__fill_1
XFILLER_0_8_139 VGND VGND VPWR VPWR sky130_fd_sc_hd__fill_1
Xoutput23 net23 VGND VGND VPWR VPWR OUT[3] sky130_fd_sc_hd__buf_2
XFILLER_0_27_97 VPWR VGND VPWR VGND sky130_ef_sc_hd__decap_12
X_290_ _100_ _040_ _041_ _046_ VGND VGND VPWR VPWR _047_ sky130_fd_sc_hd__a31o_1
XFILLER_0_13_77 VPWR VGND VPWR VGND sky130_ef_sc_hd__decap_12
XFILLER_0_1_189 VGND VGND VPWR VPWR sky130_fd_sc_hd__fill_1
XFILLER_0_1_167 VGND VGND VPWR VPWR sky130_fd_sc_hd__fill_1
XTAP_TAPCELL_ROW_3_70 VGND VPWR sky130_fd_sc_hd__tapvpwrvgnd_1
X_273_ _018_ VGND VGND VPWR VPWR _030_ sky130_fd_sc_hd__inv_2
X_342_ _134_ _137_ _129_ VGND VGND VPWR VPWR _093_ sky130_fd_sc_hd__a21o_1
XFILLER_0_24_76 VGND VGND VPWR VPWR sky130_fd_sc_hd__decap_8
XFILLER_0_4_53 VPWR VGND VPWR VGND sky130_ef_sc_hd__decap_12
XFILLER_0_4_97 VGND VGND VPWR VPWR sky130_fd_sc_hd__fill_1
X_325_ _134_ _073_ _077_ VGND VGND VPWR VPWR _078_ sky130_fd_sc_hd__o21bai_1
XTAP_TAPCELL_ROW_0_60 VGND VPWR sky130_fd_sc_hd__tapvpwrvgnd_1
X_256_ _166_ _013_ VGND VGND VPWR VPWR _014_ sky130_fd_sc_hd__nand2_2
X_187_ _111_ _113_ _114_ VGND VGND VPWR VPWR _115_ sky130_fd_sc_hd__o21bai_4
XFILLER_0_18_162 VPWR VGND VPWR VGND sky130_ef_sc_hd__decap_12
XFILLER_0_24_187 VGND VGND VPWR VPWR sky130_fd_sc_hd__decap_3
XFILLER_0_21_33 VPWR VGND VPWR VGND sky130_ef_sc_hd__decap_12
X_239_ net28 _162_ _106_ VGND VGND VPWR VPWR _167_ sky130_fd_sc_hd__a21oi_2
X_308_ _101_ _103_ _158_ VGND VGND VPWR VPWR _062_ sky130_fd_sc_hd__a21oi_1
XFILLER_0_15_132 VPWR VGND VPWR VGND sky130_ef_sc_hd__decap_12
XTAP_TAPCELL_ROW_10_91 VGND VPWR sky130_fd_sc_hd__tapvpwrvgnd_1
XFILLER_0_21_124 VPWR VGND VPWR VGND sky130_ef_sc_hd__decap_12
XFILLER_0_16_77 VGND VGND VPWR VPWR sky130_fd_sc_hd__decap_6
Xoutput24 net24 VGND VGND VPWR VPWR OUT[4] sky130_fd_sc_hd__buf_2
XFILLER_0_7_151 VPWR VGND VPWR VGND sky130_ef_sc_hd__decap_12
XPHY_EDGE_ROW_19_Right_19 VGND VGND VPWR VPWR sky130_fd_sc_hd__decap_3
XFILLER_0_27_43 VPWR VGND VPWR VGND sky130_ef_sc_hd__decap_12
XPHY_EDGE_ROW_15_Left_43 VGND VGND VPWR VPWR sky130_fd_sc_hd__decap_3
XFILLER_0_7_31 VGND VGND VPWR VPWR sky130_fd_sc_hd__decap_8
XFILLER_0_13_89 VPWR VGND VPWR VGND sky130_ef_sc_hd__decap_12
XFILLER_0_1_113 VPWR VGND VPWR VGND sky130_ef_sc_hd__decap_12
XPHY_EDGE_ROW_0_Left_28 VGND VGND VPWR VPWR sky130_fd_sc_hd__decap_3
X_272_ _027_ _028_ VGND VGND VPWR VPWR _029_ sky130_fd_sc_hd__or2_1
X_341_ net13 net5 _151_ _091_ VGND VGND VPWR VPWR _092_ sky130_fd_sc_hd__a31o_1
XFILLER_0_24_55 VGND VGND VPWR VPWR sky130_fd_sc_hd__fill_1
XFILLER_0_4_65 VPWR VGND VPWR VGND sky130_ef_sc_hd__decap_12
X_186_ net9 net10 net3 net4 VGND VGND VPWR VPWR _114_ sky130_fd_sc_hd__and4_1
XFILLER_0_19_22 VGND VGND VPWR VPWR sky130_fd_sc_hd__fill_1
X_324_ _104_ _106_ _151_ _075_ _076_ VGND VGND VPWR VPWR _077_ sky130_fd_sc_hd__a311o_1
X_255_ net5 _165_ VGND VGND VPWR VPWR _013_ sky130_fd_sc_hd__or2_1
XFILLER_0_10_35 VGND VGND VPWR VPWR sky130_fd_sc_hd__fill_1
XFILLER_0_27_185 VGND VGND VPWR VPWR sky130_fd_sc_hd__fill_1
XFILLER_0_27_141 VPWR VGND VPWR VGND sky130_ef_sc_hd__decap_12
XTAP_TAPCELL_ROW_0_61 VGND VPWR sky130_fd_sc_hd__tapvpwrvgnd_1
XFILLER_0_18_174 VPWR VGND VPWR VGND sky130_ef_sc_hd__decap_12
XFILLER_0_18_141 VGND VGND VPWR VPWR sky130_fd_sc_hd__decap_4
XPHY_EDGE_ROW_3_Left_31 VGND VGND VPWR VPWR sky130_fd_sc_hd__decap_3
XFILLER_0_21_45 VGND VGND VPWR VPWR sky130_fd_sc_hd__decap_8
X_238_ net5 _165_ VGND VGND VPWR VPWR _166_ sky130_fd_sc_hd__nand2_4
X_307_ _112_ _118_ _058_ _061_ VGND VGND VPWR VPWR net20 sky130_fd_sc_hd__a31o_1
XFILLER_0_15_144 VPWR VGND VPWR VGND sky130_ef_sc_hd__decap_12
XFILLER_0_21_169 VGND VGND VPWR VPWR sky130_fd_sc_hd__decap_4
XFILLER_0_21_136 VPWR VGND VPWR VGND sky130_ef_sc_hd__decap_12
XFILLER_0_16_12 VGND VGND VPWR VPWR sky130_fd_sc_hd__fill_1
XFILLER_0_18_3 VGND VGND VPWR VPWR sky130_fd_sc_hd__decap_4
XFILLER_0_12_103 VPWR VGND VPWR VGND sky130_ef_sc_hd__decap_12
XFILLER_0_7_163 VGND VGND VPWR VPWR sky130_fd_sc_hd__decap_4
Xoutput25 net25 VGND VGND VPWR VPWR OUT[5] sky130_fd_sc_hd__buf_2
XFILLER_0_27_55 VGND VGND VPWR VPWR sky130_fd_sc_hd__fill_1
XFILLER_0_4_166 VPWR VGND VPWR VGND sky130_ef_sc_hd__decap_12
XTAP_TAPCELL_ROW_14_101 VGND VPWR sky130_fd_sc_hd__tapvpwrvgnd_1
XFILLER_0_1_169 VPWR VGND VPWR VGND sky130_ef_sc_hd__decap_12
XFILLER_0_1_125 VPWR VGND VPWR VGND sky130_ef_sc_hd__decap_12
X_271_ net7 _026_ VGND VGND VPWR VPWR _028_ sky130_fd_sc_hd__nor2_1
X_340_ _090_ _156_ VGND VGND VPWR VPWR _091_ sky130_fd_sc_hd__and2b_1
XFILLER_0_4_77 VGND VGND VPWR VPWR sky130_fd_sc_hd__decap_6
X_323_ _104_ _153_ VGND VGND VPWR VPWR _076_ sky130_fd_sc_hd__nor2_1
X_254_ _107_ _010_ VGND VGND VPWR VPWR _012_ sky130_fd_sc_hd__nor2_2
X_185_ _103_ net3 net4 _112_ VGND VGND VPWR VPWR _113_ sky130_fd_sc_hd__a22oi_4
XFILLER_0_27_153 VPWR VGND VPWR VGND sky130_ef_sc_hd__decap_12
XFILLER_0_18_186 VGND VGND VPWR VPWR sky130_fd_sc_hd__decap_4
X_237_ net13 _164_ VGND VGND VPWR VPWR _165_ sky130_fd_sc_hd__xnor2_4
X_306_ _118_ _153_ _060_ VGND VGND VPWR VPWR _061_ sky130_fd_sc_hd__o21ai_1
XFILLER_0_21_57 VPWR VGND VPWR VGND sky130_ef_sc_hd__decap_12
XFILLER_0_15_189 VGND VGND VPWR VPWR sky130_fd_sc_hd__fill_1
XFILLER_0_15_156 VPWR VGND VPWR VGND sky130_ef_sc_hd__decap_12
XFILLER_0_15_101 VGND VGND VPWR VPWR sky130_fd_sc_hd__decap_3
XFILLER_0_1_67 VPWR VGND VPWR VGND sky130_ef_sc_hd__decap_12
XFILLER_0_21_148 VGND VGND VPWR VPWR sky130_fd_sc_hd__fill_2
XFILLER_0_12_115 VPWR VGND VPWR VGND sky130_ef_sc_hd__decap_12
XFILLER_0_8_109 VPWR VGND VPWR VGND sky130_ef_sc_hd__decap_12
XPHY_EDGE_ROW_1_Right_1 VGND VGND VPWR VPWR sky130_fd_sc_hd__decap_3
Xoutput26 net26 VGND VGND VPWR VPWR OUT[6] sky130_fd_sc_hd__buf_2
XFILLER_0_7_131 VGND VGND VPWR VPWR sky130_fd_sc_hd__fill_1
XFILLER_0_9_7 VPWR VGND VPWR VGND sky130_ef_sc_hd__decap_12
XTAP_TAPCELL_ROW_17_110 VGND VPWR sky130_fd_sc_hd__tapvpwrvgnd_1
XFILLER_0_4_101 VGND VGND VPWR VPWR sky130_fd_sc_hd__decap_8
XFILLER_0_4_178 VPWR VGND VPWR VGND sky130_ef_sc_hd__decap_12
XTAP_TAPCELL_ROW_14_102 VGND VPWR sky130_fd_sc_hd__tapvpwrvgnd_1
XFILLER_0_1_137 VPWR VGND VPWR VGND sky130_ef_sc_hd__decap_12
X_270_ net7 _026_ VGND VGND VPWR VPWR _027_ sky130_fd_sc_hd__and2_4
XFILLER_0_4_45 VGND VGND VPWR VPWR sky130_fd_sc_hd__fill_1
X_322_ _104_ _106_ _156_ _074_ VGND VGND VPWR VPWR _075_ sky130_fd_sc_hd__o22a_1
XFILLER_0_27_165 VGND VGND VPWR VPWR sky130_fd_sc_hd__decap_3
X_184_ net9 VGND VGND VPWR VPWR _112_ sky130_fd_sc_hd__buf_4
XFILLER_0_19_79 VPWR VGND VPWR VGND sky130_ef_sc_hd__decap_12
XFILLER_0_19_57 VPWR VGND VPWR VGND sky130_ef_sc_hd__decap_12
X_253_ _107_ _010_ VGND VGND VPWR VPWR _011_ sky130_fd_sc_hd__nand2_2
XFILLER_0_18_121 VPWR VGND VPWR VGND sky130_ef_sc_hd__decap_12
XFILLER_0_21_69 VPWR VGND VPWR VGND sky130_ef_sc_hd__decap_12
X_305_ _112_ _118_ _155_ _059_ VGND VGND VPWR VPWR _060_ sky130_fd_sc_hd__a31o_1
X_236_ net11 net12 _162_ _163_ VGND VGND VPWR VPWR _164_ sky130_fd_sc_hd__o31a_2
XFILLER_0_15_113 VGND VGND VPWR VPWR sky130_fd_sc_hd__fill_2
XFILLER_0_1_79 VPWR VGND VPWR VGND sky130_ef_sc_hd__decap_12
XFILLER_0_1_57 VGND VGND VPWR VPWR sky130_fd_sc_hd__decap_4
XFILLER_0_16_25 VGND VGND VPWR VPWR sky130_fd_sc_hd__decap_3
XFILLER_0_12_149 VPWR VGND VPWR VGND sky130_ef_sc_hd__decap_12
XFILLER_0_12_127 VGND VGND VPWR VPWR sky130_fd_sc_hd__decap_6
X_219_ _128_ _138_ _146_ VGND VGND VPWR VPWR _147_ sky130_fd_sc_hd__a21oi_1
Xoutput27 net27 VGND VGND VPWR VPWR OUT[7] sky130_fd_sc_hd__buf_2
XFILLER_0_27_57 VPWR VGND VPWR VGND sky130_ef_sc_hd__decap_12
XFILLER_0_27_13 VPWR VGND VPWR VGND sky130_ef_sc_hd__decap_12
XTAP_TAPCELL_ROW_17_111 VGND VPWR sky130_fd_sc_hd__tapvpwrvgnd_1
XPHY_EDGE_ROW_24_Right_24 VGND VGND VPWR VPWR sky130_fd_sc_hd__decap_3
XPHY_EDGE_ROW_15_Right_15 VGND VGND VPWR VPWR sky130_fd_sc_hd__decap_3
XFILLER_0_7_78 VPWR VGND VPWR VGND sky130_ef_sc_hd__decap_12
XTAP_TAPCELL_ROW_14_103 VGND VPWR sky130_fd_sc_hd__tapvpwrvgnd_1
XPHY_EDGE_ROW_19_Left_47 VGND VGND VPWR VPWR sky130_fd_sc_hd__decap_3
XFILLER_0_1_149 VPWR VGND VPWR VGND sky130_ef_sc_hd__decap_12
XFILLER_0_0_160 VGND VGND VPWR VPWR sky130_fd_sc_hd__fill_1
X_321_ _104_ _106_ _158_ VGND VGND VPWR VPWR _074_ sky130_fd_sc_hd__a21oi_1
XFILLER_0_19_69 VGND VGND VPWR VPWR sky130_fd_sc_hd__decap_4
XFILLER_0_19_14 VGND VGND VPWR VPWR sky130_fd_sc_hd__decap_8
X_252_ _119_ _009_ VGND VGND VPWR VPWR _010_ sky130_fd_sc_hd__xnor2_2
X_183_ net2 net11 VGND VGND VPWR VPWR _111_ sky130_fd_sc_hd__nand2_2
XFILLER_0_18_133 VGND VGND VPWR VPWR sky130_fd_sc_hd__decap_6
X_304_ _112_ _118_ _099_ _150_ VGND VGND VPWR VPWR _059_ sky130_fd_sc_hd__o211ai_2
X_235_ net17 net18 net19 VGND VGND VPWR VPWR _163_ sky130_fd_sc_hd__nand3b_4
XFILLER_0_24_147 VPWR VGND VPWR VGND sky130_ef_sc_hd__decap_12
XFILLER_0_15_169 VPWR VGND VPWR VGND sky130_ef_sc_hd__decap_12
XFILLER_0_1_25 VGND VGND VPWR VPWR sky130_fd_sc_hd__fill_1
XFILLER_0_11_81 VPWR VGND VPWR VGND sky130_ef_sc_hd__decap_12
XFILLER_0_21_106 VGND VGND VPWR VPWR sky130_fd_sc_hd__decap_6
XPHY_EDGE_ROW_7_Left_35 VGND VGND VPWR VPWR sky130_fd_sc_hd__decap_3
XFILLER_0_12_139 VGND VGND VPWR VPWR sky130_fd_sc_hd__fill_1
X_218_ _144_ _145_ VGND VGND VPWR VPWR _146_ sky130_fd_sc_hd__or2b_1
XFILLER_0_25_7 VGND VGND VPWR VPWR sky130_fd_sc_hd__decap_4
XFILLER_0_7_111 VGND VGND VPWR VPWR sky130_fd_sc_hd__fill_1
XFILLER_0_27_69 VPWR VGND VPWR VGND sky130_ef_sc_hd__decap_12
XFILLER_0_27_25 VGND VGND VPWR VPWR sky130_fd_sc_hd__decap_3
XTAP_TAPCELL_ROW_17_112 VGND VPWR sky130_fd_sc_hd__tapvpwrvgnd_1
XFILLER_0_4_114 VPWR VGND VPWR VGND sky130_ef_sc_hd__decap_12
XFILLER_0_7_57 VGND VGND VPWR VPWR sky130_fd_sc_hd__fill_1
XFILLER_0_24_26 VGND VGND VPWR VPWR sky130_fd_sc_hd__fill_2
XFILLER_0_24_15 VGND VGND VPWR VPWR sky130_fd_sc_hd__decap_8
XPHY_EDGE_ROW_20_Left_48 VGND VGND VPWR VPWR sky130_fd_sc_hd__decap_3
X_251_ _106_ _162_ net29 VGND VGND VPWR VPWR _009_ sky130_fd_sc_hd__o21a_1
X_182_ _105_ _108_ _109_ VGND VGND VPWR VPWR _110_ sky130_fd_sc_hd__o21ai_4
X_320_ _132_ _133_ _100_ VGND VGND VPWR VPWR _073_ sky130_fd_sc_hd__o21ai_1
XFILLER_0_24_159 VGND VGND VPWR VPWR sky130_fd_sc_hd__decap_3
XPHY_EDGE_ROW_23_Left_51 VGND VGND VPWR VPWR sky130_fd_sc_hd__decap_3
X_303_ _100_ _151_ VGND VGND VPWR VPWR _058_ sky130_fd_sc_hd__or2_1
X_234_ net9 net10 VGND VGND VPWR VPWR _162_ sky130_fd_sc_hd__or2_4
XFILLER_0_1_48 VGND VGND VPWR VPWR sky130_fd_sc_hd__decap_8
XFILLER_0_23_181 VGND VGND VPWR VPWR sky130_fd_sc_hd__decap_8
XFILLER_0_11_93 VPWR VGND VPWR VGND sky130_ef_sc_hd__decap_12
XFILLER_0_14_170 VPWR VGND VPWR VGND sky130_ef_sc_hd__decap_12
X_217_ _139_ _140_ _143_ VGND VGND VPWR VPWR _145_ sky130_fd_sc_hd__o21ai_1
XFILLER_0_22_92 VGND VGND VPWR VPWR sky130_fd_sc_hd__fill_1
XFILLER_0_22_81 VGND VGND VPWR VPWR sky130_fd_sc_hd__decap_3
XFILLER_0_18_7 VGND VGND VPWR VPWR sky130_fd_sc_hd__fill_1
XFILLER_0_7_167 VGND VGND VPWR VPWR sky130_fd_sc_hd__fill_1
XFILLER_0_27_37 VGND VGND VPWR VPWR sky130_fd_sc_hd__decap_3
XFILLER_0_4_126 VPWR VGND VPWR VGND sky130_ef_sc_hd__decap_12
XFILLER_0_4_148 VPWR VGND VPWR VGND sky130_ef_sc_hd__decap_12
XFILLER_0_17_81 VGND VGND VPWR VPWR sky130_fd_sc_hd__decap_8
XPHY_EDGE_ROW_5_Right_5 VGND VGND VPWR VPWR sky130_fd_sc_hd__decap_3
XFILLER_0_7_7 VPWR VGND VPWR VGND sky130_ef_sc_hd__decap_12
XTAP_TAPCELL_ROW_20_119 VGND VPWR sky130_fd_sc_hd__tapvpwrvgnd_1
XFILLER_0_0_173 VPWR VGND VPWR VGND sky130_ef_sc_hd__decap_12
XFILLER_0_4_15 VPWR VGND VPWR VGND sky130_ef_sc_hd__decap_12
X_250_ _002_ _005_ _007_ VGND VGND VPWR VPWR _008_ sky130_fd_sc_hd__o21ai_4
X_181_ _104_ _106_ net4 _103_ VGND VGND VPWR VPWR _109_ sky130_fd_sc_hd__a22o_1
XFILLER_0_10_29 VGND VGND VPWR VPWR sky130_fd_sc_hd__decap_6
XFILLER_0_27_179 VGND VGND VPWR VPWR sky130_fd_sc_hd__decap_6
XTAP_TAPCELL_ROW_9_86 VGND VPWR sky130_fd_sc_hd__tapvpwrvgnd_1
X_233_ net14 net6 _151_ _154_ _160_ VGND VGND VPWR VPWR _161_ sky130_fd_sc_hd__a311o_1
X_302_ _023_ _051_ _052_ _057_ VGND VGND VPWR VPWR net27 sky130_fd_sc_hd__a31o_1
XFILLER_0_14_182 VGND VGND VPWR VPWR sky130_fd_sc_hd__decap_8
X_216_ _139_ _140_ _143_ VGND VGND VPWR VPWR _144_ sky130_fd_sc_hd__nor3_2
XFILLER_0_20_141 VPWR VGND VPWR VGND sky130_ef_sc_hd__decap_12
XFILLER_0_7_102 VGND VGND VPWR VPWR sky130_fd_sc_hd__decap_4
XFILLER_0_7_113 VPWR VGND VPWR VGND sky130_ef_sc_hd__decap_12
XFILLER_0_11_185 VGND VGND VPWR VPWR sky130_fd_sc_hd__fill_1
XFILLER_0_11_130 VPWR VGND VPWR VGND sky130_ef_sc_hd__decap_12
XFILLER_0_4_138 VGND VGND VPWR VPWR sky130_fd_sc_hd__fill_2
XFILLER_0_7_48 VGND VGND VPWR VPWR sky130_fd_sc_hd__decap_8
XTAP_TAPCELL_ROW_23_128 VGND VPWR sky130_fd_sc_hd__tapvpwrvgnd_1
XPHY_EDGE_ROW_20_Right_20 VGND VGND VPWR VPWR sky130_fd_sc_hd__decap_3
XFILLER_0_13_18 VPWR VGND VPWR VGND sky130_ef_sc_hd__decap_12
XPHY_EDGE_ROW_11_Right_11 VGND VGND VPWR VPWR sky130_fd_sc_hd__decap_3
XFILLER_0_1_108 VGND VGND VPWR VPWR sky130_fd_sc_hd__decap_4
XFILLER_0_0_185 VGND VGND VPWR VPWR sky130_fd_sc_hd__fill_1
XFILLER_0_0_141 VGND VGND VPWR VPWR sky130_fd_sc_hd__fill_2
XFILLER_0_14_83 VGND VGND VPWR VPWR sky130_fd_sc_hd__fill_1
XFILLER_0_4_27 VGND VGND VPWR VPWR sky130_fd_sc_hd__fill_1
X_180_ _106_ _107_ VGND VGND VPWR VPWR _108_ sky130_fd_sc_hd__nand2_2
XFILLER_0_19_28 VPWR VGND VPWR VGND sky130_ef_sc_hd__decap_12
XTAP_TAPCELL_ROW_0_56 VGND VPWR sky130_fd_sc_hd__tapvpwrvgnd_1
XTAP_TAPCELL_ROW_9_87 VGND VPWR sky130_fd_sc_hd__tapvpwrvgnd_1
XFILLER_0_24_117 VGND VGND VPWR VPWR sky130_fd_sc_hd__fill_1
X_301_ _100_ _053_ _056_ VGND VGND VPWR VPWR _057_ sky130_fd_sc_hd__a21bo_1
XFILLER_0_5_81 VPWR VGND VPWR VGND sky130_ef_sc_hd__decap_12
X_232_ net14 net6 _156_ _159_ VGND VGND VPWR VPWR _160_ sky130_fd_sc_hd__o22a_1
XFILLER_0_23_161 VGND VGND VPWR VPWR sky130_fd_sc_hd__decap_6
XFILLER_0_16_29 VPWR VGND VPWR VGND sky130_ef_sc_hd__decap_12
XFILLER_0_14_161 VGND VGND VPWR VPWR sky130_fd_sc_hd__decap_3
XFILLER_0_20_153 VPWR VGND VPWR VGND sky130_ef_sc_hd__decap_12