*SPEF "ieee 1481-1999"
*DESIGN "counter"
*DATE "13:30:10 Monday May 19, 2025"
*VENDOR "The OpenROAD Project"
*PROGRAM "OpenROAD"
*VERSION "b16bda7e82721d10566ff7e2b68f1ff0be9f9e38"
*DESIGN_FLOW "NAME_SCOPE LOCAL" "PIN_CAP NONE"
*DIVIDER /
*DELIMITER :
*BUS_DELIMITER []
*T_UNIT 1 NS
*C_UNIT 1 PF
*R_UNIT 1 OHM
*L_UNIT 1 HENRY

*NAME_MAP
*3 clk
*4 count[0]
*5 count[1]
*6 count[2]
*7 count[3]
*8 rst
*9 _00_
*10 _01_
*11 _02_
*12 _03_
*13 _04_
*14 _05_
*15 _06_
*16 _07_
*17 _08_
*18 clknet_0_clk
*19 clknet_1_0__leaf_clk
*20 clknet_1_1__leaf_clk
*21 net1
*22 net2
*23 net3
*24 net4
*25 net5
*26 FILLER_0_0_20
*27 FILLER_0_0_29
*28 FILLER_0_0_41
*29 FILLER_0_0_8
*30 FILLER_0_10_23
*31 FILLER_0_10_27
*32 FILLER_0_10_35
*33 FILLER_0_10_43
*34 FILLER_0_10_47
*35 FILLER_0_11_15
*36 FILLER_0_11_3
*37 FILLER_0_11_38
*38 FILLER_0_11_46
*39 FILLER_0_12_21
*40 FILLER_0_12_27
*41 FILLER_0_12_32
*42 FILLER_0_12_44
*43 FILLER_0_12_9
*44 FILLER_0_1_13
*45 FILLER_0_1_25
*46 FILLER_0_1_3
*47 FILLER_0_1_37
*48 FILLER_0_1_45
*49 FILLER_0_2_15
*50 FILLER_0_2_27
*51 FILLER_0_2_29
*52 FILLER_0_2_3
*53 FILLER_0_2_41
*54 FILLER_0_2_47
*55 FILLER_0_3_15
*56 FILLER_0_3_27
*57 FILLER_0_3_3
*58 FILLER_0_3_39
*59 FILLER_0_4_15
*60 FILLER_0_4_27
*61 FILLER_0_4_29
*62 FILLER_0_4_3
*63 FILLER_0_4_41
*64 FILLER_0_5_15
*65 FILLER_0_5_27
*66 FILLER_0_5_3
*67 FILLER_0_5_39
*68 FILLER_0_5_47
*69 FILLER_0_6_15
*70 FILLER_0_6_19
*71 FILLER_0_6_27
*72 FILLER_0_6_29
*73 FILLER_0_6_3
*74 FILLER_0_6_37
*75 FILLER_0_6_42
*76 FILLER_0_7_3
*77 FILLER_0_7_46
*78 FILLER_0_8_29
*79 FILLER_0_8_3
*80 FILLER_0_8_40
*81 FILLER_0_8_7
*82 FILLER_0_9_43
*83 PHY_EDGE_ROW_0_Left_13
*84 PHY_EDGE_ROW_0_Right_0
*85 PHY_EDGE_ROW_10_Left_23
*86 PHY_EDGE_ROW_10_Right_10
*87 PHY_EDGE_ROW_11_Left_24
*88 PHY_EDGE_ROW_11_Right_11
*89 PHY_EDGE_ROW_12_Left_25
*90 PHY_EDGE_ROW_12_Right_12
*91 PHY_EDGE_ROW_1_Left_14
*92 PHY_EDGE_ROW_1_Right_1
*93 PHY_EDGE_ROW_2_Left_15
*94 PHY_EDGE_ROW_2_Right_2
*95 PHY_EDGE_ROW_3_Left_16
*96 PHY_EDGE_ROW_3_Right_3
*97 PHY_EDGE_ROW_4_Left_17
*98 PHY_EDGE_ROW_4_Right_4
*99 PHY_EDGE_ROW_5_Left_18
*100 PHY_EDGE_ROW_5_Right_5
*101 PHY_EDGE_ROW_6_Left_19
*102 PHY_EDGE_ROW_6_Right_6
*103 PHY_EDGE_ROW_7_Left_20
*104 PHY_EDGE_ROW_7_Right_7
*105 PHY_EDGE_ROW_8_Left_21
*106 PHY_EDGE_ROW_8_Right_8
*107 PHY_EDGE_ROW_9_Left_22
*108 PHY_EDGE_ROW_9_Right_9
*109 TAP_TAPCELL_ROW_0_26
*110 TAP_TAPCELL_ROW_10_31
*111 TAP_TAPCELL_ROW_12_32
*112 TAP_TAPCELL_ROW_2_27
*113 TAP_TAPCELL_ROW_4_28
*114 TAP_TAPCELL_ROW_6_29
*115 TAP_TAPCELL_ROW_8_30
*116 _09_
*117 _10_
*118 _11_
*119 _12_
*120 _13_
*121 _14_
*122 _15_
*123 _16_
*124 _17_
*125 _18_
*126 _19_
*127 _20_
*128 _21_
*129 clkbuf_0_clk
*130 clkbuf_1_0__f_clk
*131 clkbuf_1_1__f_clk
*132 clkload0
*133 input1
*134 output2
*135 output3
*136 output4
*137 output5

*PORTS
clk I
count[0] O
count[1] O
count[2] O
count[3] O
rst I

*D_NET *3 0.0043219
*CONN
*P clk I
*I *129:A I *D sky130_fd_sc_hd__clkbuf_16
*CAP
1 clk 0.00170573
2 *129:A 0.00170573
3 *129:A *122:C 0
4 *129:A *131:A 8.50877e-05
5 *129:A *137:A 0.000208484
6 *129:A *24:10 5.16418e-05
7 *129:A *25:29 0.000565227
*RES
1 clk *129:A 19.4061 
*END

*D_NET *4 0.000552422
*CONN
*P count[0] O
*I *134:X O *D sky130_fd_sc_hd__buf_1
*CAP
1 count[0] 0.000276211
2 *134:X 0.000276211
*RES
1 *134:X count[0] 6.3185 
*END

*D_NET *5 0.000509388
*CONN
*P count[1] O
*I *135:X O *D sky130_fd_sc_hd__buf_1
*CAP
1 count[1] 0.000224349
2 *135:X 0.000224349
3 count[1] *120:C 6.06899e-05
*RES
1 *135:X count[1] 5.8085 
*END

*D_NET *6 0.000501582
*CONN
*P count[2] O
*I *136:X O *D sky130_fd_sc_hd__buf_1
*CAP
1 count[2] 0.000250791
2 *136:X 0.000250791
3 count[2] *117:A_N 0
*RES
1 *136:X count[2] 5.8085 
*END

*D_NET *7 0.000706109
*CONN
*P count[3] O
*I *137:X O *D sky130_fd_sc_hd__buf_1
*CAP
1 count[3] 0.000353055
2 *137:X 0.000353055
*RES
1 *137:X count[3] 7.8485 
*END

*D_NET *8 0.000947867
*CONN
*P rst I
*I *133:A I *D sky130_fd_sc_hd__buf_1
*CAP
1 rst 0.000473934
2 *133:A 0.000473934
*RES
1 rst *133:A 11.64 
*END

*D_NET *9 0.000950669
*CONN
*I *125:D I *D sky130_fd_sc_hd__dfrtp_2
*I *118:X O *D sky130_fd_sc_hd__clkbuf_1
*CAP
1 *125:D 0.000318127
2 *118:X 0.000318127
3 *125:D *116:A 0
4 *125:D *118:A 0.000159118
5 *125:D *122:C 0.00011852
6 *125:D *25:29 3.67779e-05
*RES
1 *118:X *125:D 12.135 
*END

*D_NET *10 0.000434565
*CONN
*I *126:D I *D sky130_fd_sc_hd__dfrtp_1
*I *119:X O *D sky130_fd_sc_hd__xor2_1
*CAP
1 *126:D 0.000102493
2 *119:X 0.000102493
3 *126:D *134:A 2.60986e-05
4 *126:D *22:51 3.67779e-05
5 *126:D *23:27 0.000116158
6 *126:D *23:36 5.05437e-05
*RES
1 *119:X *126:D 9.375 
*END

*D_NET *11 0.00197338
*CONN
*I *127:D I *D sky130_fd_sc_hd__dfrtp_1
*I *123:X O *D sky130_fd_sc_hd__clkbuf_1
*CAP
1 *127:D 0.000694506
2 *123:X 0.000694506
3 *127:D *126:CLK 0.000144367
4 *127:D *127:CLK 2.75145e-05
5 *127:D *127:RESET_B 2.34984e-05
6 *127:D *18:8 7.40016e-05
7 *127:D *21:14 0.000232645
8 *127:D *24:10 8.23457e-05
9 *127:D *24:25 0
*RES
1 *123:X *127:D 19.485 
*END

*D_NET *12 0.00157555
*CONN
*I *128:D I *D sky130_fd_sc_hd__dfrtp_1
*I *124:Y O *D sky130_fd_sc_hd__xnor2_1
*CAP
1 *128:D 0.000787774
2 *124:Y 0.000787774
3 *128:D *122:A 0
4 *128:D *17:10 0
*RES
1 *124:Y *128:D 19.575 
*END

*D_NET *13 0.00253701
*CONN
*I *118:A I *D sky130_fd_sc_hd__clkbuf_1
*I *117:X O *D sky130_fd_sc_hd__and2b_1
*CAP
1 *118:A 0.00054737
2 *117:X 0.00054737
3 *118:A *117:A_N 0.000406476
4 *118:A *117:B 0.000203178
5 *118:A *120:A 0.000197264
6 *118:A *123:A 0
7 *118:A *14:10 0.000464676
8 *118:A *22:10 1.1561e-05
9 *125:D *118:A 0.000159118
*RES
1 *117:X *118:A 22.605 
*END

*D_NET *14 0.00410218
*CONN
*I *124:B I *D sky130_fd_sc_hd__xnor2_1
*I *122:B I *D sky130_fd_sc_hd__and3_1
*I *120:Y O *D sky130_fd_sc_hd__nand3_1
*CAP
1 *124:B 4.18978e-05
2 *122:B 0.000296481
3 *120:Y 0.00130085
4 *14:10 0.00163923
5 *122:B *122:A 0
6 *122:B *122:C 2.20223e-05
7 *122:B *123:A 0.000237009
8 *124:B *124:A 8.52845e-05
9 *14:10 *120:A 1.47347e-05
10 *14:10 *122:A 0
11 *118:A *14:10 0.000464676
*RES
1 *120:Y *14:10 22.125 
2 *14:10 *122:B 7.845 
3 *14:10 *124:B 4.395 
*END

*D_NET *15 0.00410512
*CONN
*I *122:C I *D sky130_fd_sc_hd__and3_1
*I *121:X O *D sky130_fd_sc_hd__a21o_1
*CAP
1 *122:C 0.00132597
2 *121:X 0.00132597
3 *122:C *116:A 0
4 *122:C *123:A 0.000293823
5 *122:C *125:CLK 0
6 *122:C *131:A 0
7 *122:C *136:A 0.000159317
8 *122:C *137:A 0.000207573
9 *122:C *21:14 4.94404e-05
10 *122:C *24:10 0
11 *122:C *24:25 0.000222571
12 *122:C *25:29 0.000379925
13 *122:B *122:C 2.20223e-05
14 *125:D *122:C 0.00011852
15 *129:A *122:C 0
*RES
1 *121:X *122:C 35.715 
*END

*D_NET *16 0.00428793
*CONN
*I *123:A I *D sky130_fd_sc_hd__clkbuf_1
*I *122:X O *D sky130_fd_sc_hd__and3_1
*CAP
1 *123:A 0.00135271
2 *122:X 0.00135271
3 *123:A *126:CLK 0.000163204
4 *123:A *136:A 0.000384378
5 *123:A *137:A 0.000161837
6 *123:A *22:10 0
7 *123:A *24:25 0.000342254
8 *118:A *123:A 0
9 *122:B *123:A 0.000237009
10 *122:C *123:A 0.000293823
*RES
1 *122:X *123:A 34.365 
*END

*D_NET *17 0.00521407
*CONN
*I *117:B I *D sky130_fd_sc_hd__and2b_1
*I *122:A I *D sky130_fd_sc_hd__and3_1
*I *116:X O *D sky130_fd_sc_hd__or4b_1
*CAP
1 *117:B 0.00099533
2 *122:A 0.000373506
3 *116:X 0.0011251
4 *17:10 0.00249393
5 *117:B *117:A_N 2.30292e-05
6 *17:10 *128:CLK 0
7 *17:10 *132:A 0
8 *17:10 *19:10 0
9 *118:A *117:B 0.000203178
10 *122:B *122:A 0
11 *128:D *122:A 0
12 *128:D *17:10 0
13 *14:10 *122:A 0
*RES
1 *116:X *17:10 21.51 
2 *17:10 *122:A 9.825 
3 *17:10 *117:B 17.505 
*END

*D_NET *18 0.0027103
*CONN
*I *130:A I *D sky130_fd_sc_hd__clkbuf_16
*I *131:A I *D sky130_fd_sc_hd__clkbuf_16
*I *129:X O *D sky130_fd_sc_hd__clkbuf_16
*CAP
1 *130:A 2.9462e-05
2 *131:A 0.000480295
3 *129:X 0.000407797
4 *18:8 0.000917554
5 *130:A *116:A 8.76033e-05
6 *130:A *24:10 5.20968e-05
7 *131:A *116:A 0.000206137
8 *131:A *24:10 2.23407e-05
9 *18:8 *21:14 0.000347922
10 *122:C *131:A 0
11 *127:D *18:8 7.40016e-05
12 *129:A *131:A 8.50877e-05
*RES
1 *129:X *18:8 8.88 
2 *18:8 *131:A 11.865 
3 *18:8 *130:A 4.725 
*END

*D_NET *19 0.00172248
*CONN
*I *132:A I *D sky130_fd_sc_hd__clkbuf_4
*I *127:CLK I *D sky130_fd_sc_hd__dfrtp_1
*I *128:CLK I *D sky130_fd_sc_hd__dfrtp_1
*I *130:X O *D sky130_fd_sc_hd__clkbuf_16
*CAP
1 *132:A 0.000195879
2 *127:CLK 0.000126665
3 *128:CLK 0.000338266
4 *130:X 4.43494e-05
5 *19:10 0.000607254
6 *19:8 0.000382551
7 *127:D *127:CLK 2.75145e-05
8 *17:10 *128:CLK 0
9 *17:10 *132:A 0
10 *17:10 *19:10 0
*RES
1 *130:X *19:8 4.05 
2 *19:8 *19:10 2.4 
3 *19:10 *128:CLK 8.94 
4 *19:10 *127:CLK 5.445 
5 *19:8 *132:A 6.765 
*END

*D_NET *20 0.00192753
*CONN
*I *126:CLK I *D sky130_fd_sc_hd__dfrtp_1
*I *125:CLK I *D sky130_fd_sc_hd__dfrtp_2
*I *131:X O *D sky130_fd_sc_hd__clkbuf_16
*CAP
1 *126:CLK 0.000503367
2 *125:CLK 0.000190102
3 *131:X 0
4 *20:4 0.000693469
5 *125:CLK *116:A 0
6 *126:CLK *134:A 5.4003e-05
7 *126:CLK *22:36 0
8 *126:CLK *22:51 0.000179015
9 *126:CLK *23:47 0
10 *126:CLK *24:25 0
11 *122:C *125:CLK 0
12 *123:A *126:CLK 0.000163204
13 *127:D *126:CLK 0.000144367
*RES
1 *131:X *20:4 1.6 
2 *20:4 *125:CLK 8.54 
3 *20:4 *126:CLK 15.125 
*END

*D_NET *21 0.00355673
*CONN
*I *126:RESET_B I *D sky130_fd_sc_hd__dfrtp_1
*I *125:RESET_B I *D sky130_fd_sc_hd__dfrtp_2
*I *128:RESET_B I *D sky130_fd_sc_hd__dfrtp_1
*I *127:RESET_B I *D sky130_fd_sc_hd__dfrtp_1
*I *133:X O *D sky130_fd_sc_hd__buf_1
*CAP
1 *126:RESET_B 4.26218e-05
2 *125:RESET_B 0.000431294
3 *128:RESET_B 0.00065674
4 *127:RESET_B 2.5129e-05
5 *133:X 7.14285e-05
6 *21:14 0.000560739
7 *21:8 0.000424214
8 *125:RESET_B *116:A 1.49988e-05
9 *125:RESET_B *25:29 1.08821e-05
10 *126:RESET_B *23:27 4.70393e-05
11 *128:RESET_B *116:A 0.000383691
12 *21:8 *116:D_N 0
13 *21:8 *134:A 0
14 *21:14 *116:D_N 0
15 *21:14 *134:A 0
16 *21:14 *23:27 9.68787e-05
17 *21:14 *24:10 0
18 *21:14 *24:25 0.000137571
19 *122:C *21:14 4.94404e-05
20 *127:D *127:RESET_B 2.34984e-05
21 *127:D *21:14 0.000232645
22 *18:8 *21:14 0.000347922
*RES
1 *133:X *21:8 4.725 
2 *21:8 *21:14 10.085 
3 *21:14 *127:RESET_B 0.3975 
4 *21:14 *128:RESET_B 8.44 
5 *128:RESET_B *125:RESET_B 5.565 
6 *21:8 *126:RESET_B 2.7425 
*END

*D_NET *22 0.00679458
*CONN
*I *119:A I *D sky130_fd_sc_hd__xor2_1
*I *134:A I *D sky130_fd_sc_hd__buf_1
*I *116:B I *D sky130_fd_sc_hd__or4b_1
*I *121:A1 I *D sky130_fd_sc_hd__a21o_1
*I *120:B I *D sky130_fd_sc_hd__nand3_1
*I *117:A_N I *D sky130_fd_sc_hd__and2b_1
*I *125:Q O *D sky130_fd_sc_hd__dfrtp_2
*CAP
1 *119:A 1.77753e-05
2 *134:A 0.000359449
3 *116:B 0.000615882
4 *121:A1 8.37395e-05
5 *120:B 0
6 *117:A_N 0.000405457
7 *125:Q 0
8 *22:51 0.00106223
9 *22:40 0.000273794
10 *22:36 0.00045658
11 *22:10 0.000700596
12 *22:4 0.000630794
13 *116:B *116:C 0.000200565
14 *116:B *23:27 0.000407938
15 *119:A *23:36 0
16 *121:A1 *23:27 3.00381e-05
17 *121:A1 *23:36 2.59835e-05
18 *22:10 *120:C 0
19 *22:36 *120:C 0.000436927
20 *22:36 *23:36 3.00381e-05
21 *22:36 *23:47 0.00019866
22 *22:40 *23:36 9.2741e-05
23 *22:51 *23:27 2.84224e-05
24 *22:51 *24:25 0
25 count[2] *117:A_N 0
26 *117:B *117:A_N 2.30292e-05
27 *118:A *117:A_N 0.000406476
28 *118:A *22:10 1.1561e-05
29 *123:A *22:10 0
30 *126:CLK *134:A 5.4003e-05
31 *126:CLK *22:36 0
32 *126:CLK *22:51 0.000179015
33 *126:D *134:A 2.60986e-05
34 *126:D *22:51 3.67779e-05
35 *21:8 *134:A 0
36 *21:14 *134:A 0
*RES
1 *125:Q *22:4 1.6 
2 *22:4 *22:10 5.72 
3 *22:10 *117:A_N 12.18 
4 *22:10 *120:B 3.6 
5 *22:4 *22:36 11.965 
6 *22:36 *22:40 1.845 
7 *22:40 *121:A1 2.74 
8 *22:40 *22:51 4.145 
9 *22:51 *116:B 11.64 
10 *22:51 *134:A 9.465 
11 *22:36 *119:A 1.96 
*END

*D_NET *23 0.00431608
*CONN
*I *135:A I *D sky130_fd_sc_hd__buf_1
*I *120:C I *D sky130_fd_sc_hd__nand3_1
*I *119:B I *D sky130_fd_sc_hd__xor2_1
*I *121:A2 I *D sky130_fd_sc_hd__a21o_1
*I *116:C I *D sky130_fd_sc_hd__or4b_1
*I *126:Q O *D sky130_fd_sc_hd__dfrtp_1
*CAP
1 *135:A 0
2 *120:C 0.000363229
3 *119:B 0
4 *121:A2 0
5 *116:C 8.2962e-05
6 *126:Q 0
7 *23:47 0.00054042
8 *23:36 0.000304322
9 *23:27 0.000412745
10 *23:4 0.000368576
11 *116:C *116:A 0.000249697
12 *23:27 *116:A 0.000123589
13 *23:27 *116:D_N 3.9389e-05
14 *23:27 *24:25 8.53113e-06
15 count[1] *120:C 6.06899e-05
16 *116:B *116:C 0.000200565
17 *116:B *23:27 0.000407938
18 *119:A *23:36 0
19 *121:A1 *23:27 3.00381e-05
20 *121:A1 *23:36 2.59835e-05
21 *126:CLK *23:47 0
22 *126:D *23:27 0.000116158
23 *126:D *23:36 5.05437e-05
24 *126:RESET_B *23:27 4.70393e-05
25 *21:14 *23:27 9.68787e-05
26 *22:10 *120:C 0
27 *22:36 *120:C 0.000436927
28 *22:36 *23:36 3.00381e-05
29 *22:36 *23:47 0.00019866
30 *22:40 *23:36 9.2741e-05
31 *22:51 *23:27 2.84224e-05
*RES
1 *126:Q *23:4 1.6 
2 *23:4 *116:C 4.48 
3 *23:4 *23:27 12.34 
4 *23:27 *121:A2 1.6 
5 *23:27 *23:36 2.88 
6 *23:36 *119:B 1.6 
7 *23:36 *23:47 5.63 
8 *23:47 *120:C 11.565 
9 *23:47 *135:A 3.6 
*END

*D_NET *24 0.00525159
*CONN
*I *116:D_N I *D sky130_fd_sc_hd__or4b_1
*I *120:A I *D sky130_fd_sc_hd__nand3_1
*I *136:A I *D sky130_fd_sc_hd__buf_1
*I *121:B1 I *D sky130_fd_sc_hd__a21o_1
*I *127:Q O *D sky130_fd_sc_hd__dfrtp_1
*CAP
1 *116:D_N 0.000448055
2 *120:A 0.000124904
3 *136:A 0.000437943
4 *121:B1 0
5 *127:Q 0.00016666
6 *24:25 0.000881363
7 *24:14 0.000496375
8 *24:10 0.000792574
9 *116:D_N *116:A 0.000179116
10 *24:10 *116:A 1.01661e-05
11 *118:A *120:A 0.000197264
12 *122:C *136:A 0.000159317
13 *122:C *24:10 0
14 *122:C *24:25 0.000222571
15 *123:A *136:A 0.000384378
16 *123:A *24:25 0.000342254
17 *126:CLK *24:25 0
18 *127:D *24:10 8.23457e-05
19 *127:D *24:25 0
20 *129:A *24:10 5.16418e-05
21 *130:A *24:10 5.20968e-05
22 *131:A *24:10 2.23407e-05
23 *14:10 *120:A 1.47347e-05
24 *21:8 *116:D_N 0
25 *21:14 *116:D_N 0
26 *21:14 *24:10 0
27 *21:14 *24:25 0.000137571
28 *22:51 *24:25 0
29 *23:27 *116:D_N 3.9389e-05
30 *23:27 *24:25 8.53113e-06
*RES
1 *127:Q *24:10 6.795 
2 *24:10 *24:14 4.52 
3 *24:14 *121:B1 1.6 
4 *24:14 *24:25 10.46 
5 *24:25 *136:A 12.63 
6 *24:25 *120:A 6.135 
7 *24:10 *116:D_N 10.425 
*END

*D_NET *25 0.00689319
*CONN
*I *124:A I *D sky130_fd_sc_hd__xnor2_1
*I *137:A I *D sky130_fd_sc_hd__buf_1
*I *116:A I *D sky130_fd_sc_hd__or4b_1
*I *128:Q O *D sky130_fd_sc_hd__dfrtp_1
*CAP
1 *124:A 0.000374344
2 *137:A 0.00042627
3 *116:A 0.000619768
4 *128:Q 0
5 *25:29 0.00137133
6 *25:4 0.00119049
7 *116:C *116:A 0.000249697
8 *116:D_N *116:A 0.000179116
9 *122:C *116:A 0
10 *122:C *137:A 0.000207573
11 *122:C *25:29 0.000379925
12 *123:A *137:A 0.000161837
13 *124:B *124:A 8.52845e-05
14 *125:CLK *116:A 0
15 *125:D *116:A 0
16 *125:D *25:29 3.67779e-05
17 *125:RESET_B *116:A 1.49988e-05
18 *125:RESET_B *25:29 1.08821e-05
19 *128:RESET_B *116:A 0.000383691
20 *129:A *137:A 0.000208484
21 *129:A *25:29 0.000565227
22 *130:A *116:A 8.76033e-05
23 *131:A *116:A 0.000206137
24 *23:27 *116:A 0.000123589
25 *24:10 *116:A 1.01661e-05
*RES
1 *128:Q *25:4 1.6 
2 *25:4 *116:A 20.225 
3 *25:4 *25:29 14.375 
4 *25:29 *137:A 12.66 
5 *25:29 *124:A 9.225 
*END
