*SPEF "ieee 1481-1999"
*DESIGN "labwork2_src"
*DATE "17:17:19 Friday May 02, 2025"
*VENDOR "The OpenROAD Project"
*PROGRAM "OpenROAD"
*VERSION "b16bda7e82721d10566ff7e2b68f1ff0be9f9e38"
*DESIGN_FLOW "NAME_SCOPE LOCAL" "PIN_CAP NONE"
*DIVIDER /
*DELIMITER :
*BUS_DELIMITER []
*T_UNIT 1 NS
*C_UNIT 1 PF
*R_UNIT 1 OHM
*L_UNIT 1 HENRY

*NAME_MAP
*1 A[0]
*2 A[1]
*3 A[2]
*4 A[3]
*5 A[4]
*6 A[5]
*7 A[6]
*8 A[7]
*9 B[0]
*10 B[1]
*11 B[2]
*12 B[3]
*13 B[4]
*14 B[5]
*15 B[6]
*16 B[7]
*17 OPCODE[0]
*18 OPCODE[1]
*19 OPCODE[2]
*20 OUT[0]
*21 OUT[1]
*22 OUT[2]
*23 OUT[3]
*24 OUT[4]
*25 OUT[5]
*26 OUT[6]
*27 OUT[7]
*30 _000_
*31 _001_
*32 _002_
*33 _003_
*34 _004_
*35 _005_
*36 _006_
*37 _007_
*38 _008_
*39 _009_
*40 _010_
*41 _011_
*42 _012_
*43 _013_
*44 _014_
*45 _015_
*46 _016_
*47 _017_
*48 _018_
*49 _019_
*50 _020_
*51 _021_
*52 _022_
*53 _023_
*54 _024_
*55 _025_
*56 _026_
*57 _027_
*58 _028_
*59 _029_
*60 _030_
*61 _031_
*62 _032_
*63 _033_
*64 _034_
*65 _035_
*66 _036_
*67 _037_
*68 _038_
*69 _039_
*70 _040_
*71 _041_
*72 _042_
*73 _043_
*74 _044_
*75 _045_
*76 _046_
*77 _047_
*78 _048_
*79 _049_
*80 _050_
*81 _051_
*82 _052_
*83 _053_
*84 _054_
*85 _055_
*86 _056_
*87 _057_
*88 _058_
*89 _059_
*90 _060_
*91 _061_
*92 _062_
*93 _063_
*94 _064_
*95 _065_
*96 _066_
*97 _067_
*98 _068_
*99 _069_
*100 _070_
*101 _071_
*102 _072_
*103 _073_
*104 _074_
*105 _075_
*106 _076_
*107 _077_
*108 _078_
*109 _079_
*110 _080_
*111 _081_
*112 _082_
*113 _083_
*114 _084_
*115 _085_
*116 _086_
*117 _087_
*118 _088_
*119 _089_
*120 _090_
*121 _091_
*122 _092_
*123 _093_
*124 _094_
*125 _095_
*126 _096_
*127 _097_
*128 _098_
*129 _099_
*130 _100_
*131 _101_
*132 _102_
*133 _103_
*134 _104_
*135 _105_
*136 _106_
*137 _107_
*138 _108_
*139 _109_
*140 _110_
*141 _111_
*142 _112_
*143 _113_
*144 _114_
*145 _115_
*146 _116_
*147 _117_
*148 _118_
*149 _119_
*150 _120_
*151 _121_
*152 _122_
*153 _123_
*154 _124_
*155 _125_
*156 _126_
*157 _127_
*158 _128_
*159 _129_
*160 _130_
*161 _131_
*162 _132_
*163 _133_
*164 _134_
*165 _135_
*166 _136_
*167 _137_
*168 _138_
*169 _139_
*170 _140_
*171 _141_
*172 _142_
*173 _143_
*174 _144_
*175 _145_
*176 _146_
*177 _147_
*178 _148_
*179 _149_
*180 _150_
*181 _151_
*182 _152_
*183 _153_
*184 _154_
*185 _155_
*186 _156_
*187 _157_
*188 _158_
*189 _159_
*190 _160_
*191 _161_
*192 _162_
*193 _163_
*194 _164_
*195 _165_
*196 _166_
*197 _167_
*198 _168_
*199 _169_
*200 net1
*201 net10
*202 net11
*203 net12
*204 net13
*205 net14
*206 net15
*207 net16
*208 net17
*209 net18
*210 net19
*211 net2
*212 net20
*213 net21
*214 net22
*215 net23
*216 net24
*217 net25
*218 net26
*219 net27
*220 net28
*221 net29
*222 net3
*223 net30
*224 net4
*225 net5
*226 net6
*227 net7
*228 net8
*229 net9
*230 FILLER_0_0_107
*231 FILLER_0_0_111
*232 FILLER_0_0_113
*233 FILLER_0_0_117
*234 FILLER_0_0_141
*235 FILLER_0_0_148
*236 FILLER_0_0_15
*237 FILLER_0_0_160
*238 FILLER_0_0_164
*239 FILLER_0_0_173
*240 FILLER_0_0_185
*241 FILLER_0_0_37
*242 FILLER_0_0_49
*243 FILLER_0_0_55
*244 FILLER_0_0_57
*245 FILLER_0_0_69
*246 FILLER_0_0_7
*247 FILLER_0_0_75
*248 FILLER_0_0_83
*249 FILLER_0_0_85
*250 FILLER_0_0_89
*251 FILLER_0_10_10
*252 FILLER_0_10_107
*253 FILLER_0_10_113
*254 FILLER_0_10_119
*255 FILLER_0_10_131
*256 FILLER_0_10_141
*257 FILLER_0_10_178
*258 FILLER_0_10_22
*259 FILLER_0_10_29
*260 FILLER_0_10_35
*261 FILLER_0_10_51
*262 FILLER_0_10_63
*263 FILLER_0_10_75
*264 FILLER_0_10_83
*265 FILLER_0_10_85
*266 FILLER_0_10_97
*267 FILLER_0_11_105
*268 FILLER_0_11_111
*269 FILLER_0_11_113
*270 FILLER_0_11_125
*271 FILLER_0_11_130
*272 FILLER_0_11_142
*273 FILLER_0_11_148
*274 FILLER_0_11_159
*275 FILLER_0_11_167
*276 FILLER_0_11_169
*277 FILLER_0_11_175
*278 FILLER_0_11_179
*279 FILLER_0_11_185
*280 FILLER_0_11_19
*281 FILLER_0_11_31
*282 FILLER_0_11_44
*283 FILLER_0_11_57
*284 FILLER_0_11_69
*285 FILLER_0_11_7
*286 FILLER_0_11_81
*287 FILLER_0_11_93
*288 FILLER_0_12_103
*289 FILLER_0_12_115
*290 FILLER_0_12_127
*291 FILLER_0_12_139
*292 FILLER_0_12_141
*293 FILLER_0_12_145
*294 FILLER_0_12_149
*295 FILLER_0_12_15
*296 FILLER_0_12_161
*297 FILLER_0_12_173
*298 FILLER_0_12_188
*299 FILLER_0_12_19
*300 FILLER_0_12_27
*301 FILLER_0_12_29
*302 FILLER_0_12_3
*303 FILLER_0_12_41
*304 FILLER_0_12_53
*305 FILLER_0_12_65
*306 FILLER_0_12_77
*307 FILLER_0_12_83
*308 FILLER_0_12_91
*309 FILLER_0_13_101
*310 FILLER_0_13_109
*311 FILLER_0_13_118
*312 FILLER_0_13_130
*313 FILLER_0_13_142
*314 FILLER_0_13_154
*315 FILLER_0_13_166
*316 FILLER_0_13_175
*317 FILLER_0_13_18
*318 FILLER_0_13_30
*319 FILLER_0_13_42
*320 FILLER_0_13_54
*321 FILLER_0_13_6
*322 FILLER_0_13_65
*323 FILLER_0_13_77
*324 FILLER_0_13_89
*325 FILLER_0_14_101
*326 FILLER_0_14_113
*327 FILLER_0_14_119
*328 FILLER_0_14_127
*329 FILLER_0_14_139
*330 FILLER_0_14_141
*331 FILLER_0_14_15
*332 FILLER_0_14_153
*333 FILLER_0_14_161
*334 FILLER_0_14_170
*335 FILLER_0_14_182
*336 FILLER_0_14_27
*337 FILLER_0_14_29
*338 FILLER_0_14_3
*339 FILLER_0_14_39
*340 FILLER_0_14_51
*341 FILLER_0_14_63
*342 FILLER_0_14_75
*343 FILLER_0_14_83
*344 FILLER_0_14_89
*345 FILLER_0_15_101
*346 FILLER_0_15_113
*347 FILLER_0_15_120
*348 FILLER_0_15_132
*349 FILLER_0_15_144
*350 FILLER_0_15_156
*351 FILLER_0_15_169
*352 FILLER_0_15_181
*353 FILLER_0_15_189
*354 FILLER_0_15_19
*355 FILLER_0_15_31
*356 FILLER_0_15_43
*357 FILLER_0_15_52
*358 FILLER_0_15_57
*359 FILLER_0_15_69
*360 FILLER_0_15_7
*361 FILLER_0_15_81
*362 FILLER_0_15_93
*363 FILLER_0_16_12
*364 FILLER_0_16_129
*365 FILLER_0_16_137
*366 FILLER_0_16_141
*367 FILLER_0_16_153
*368 FILLER_0_16_159
*369 FILLER_0_16_167
*370 FILLER_0_16_179
*371 FILLER_0_16_185
*372 FILLER_0_16_25
*373 FILLER_0_16_29
*374 FILLER_0_16_41
*375 FILLER_0_16_53
*376 FILLER_0_16_65
*377 FILLER_0_16_77
*378 FILLER_0_16_8
*379 FILLER_0_16_83
*380 FILLER_0_16_85
*381 FILLER_0_17_107
*382 FILLER_0_17_111
*383 FILLER_0_17_116
*384 FILLER_0_17_128
*385 FILLER_0_17_140
*386 FILLER_0_17_152
*387 FILLER_0_17_160
*388 FILLER_0_17_169
*389 FILLER_0_17_177
*390 FILLER_0_17_187
*391 FILLER_0_17_20
*392 FILLER_0_17_30
*393 FILLER_0_17_43
*394 FILLER_0_17_55
*395 FILLER_0_17_69
*396 FILLER_0_17_7
*397 FILLER_0_17_81
*398 FILLER_0_17_89
*399 FILLER_0_17_95
*400 FILLER_0_18_109
*401 FILLER_0_18_121
*402 FILLER_0_18_133
*403 FILLER_0_18_139
*404 FILLER_0_18_141
*405 FILLER_0_18_150
*406 FILLER_0_18_16
*407 FILLER_0_18_162
*408 FILLER_0_18_174
*409 FILLER_0_18_186
*410 FILLER_0_18_29
*411 FILLER_0_18_3
*412 FILLER_0_18_41
*413 FILLER_0_18_53
*414 FILLER_0_18_65
*415 FILLER_0_18_7
*416 FILLER_0_18_75
*417 FILLER_0_18_83
*418 FILLER_0_18_85
*419 FILLER_0_18_97
*420 FILLER_0_19_104
*421 FILLER_0_19_126
*422 FILLER_0_19_138
*423 FILLER_0_19_14
*424 FILLER_0_19_146
*425 FILLER_0_19_158
*426 FILLER_0_19_166
*427 FILLER_0_19_169
*428 FILLER_0_19_181
*429 FILLER_0_19_189
*430 FILLER_0_19_22
*431 FILLER_0_19_28
*432 FILLER_0_19_40
*433 FILLER_0_19_52
*434 FILLER_0_19_57
*435 FILLER_0_19_69
*436 FILLER_0_19_7
*437 FILLER_0_19_73
*438 FILLER_0_19_79
*439 FILLER_0_19_91
*440 FILLER_0_1_108
*441 FILLER_0_1_113
*442 FILLER_0_1_125
*443 FILLER_0_1_137
*444 FILLER_0_1_149
*445 FILLER_0_1_161
*446 FILLER_0_1_167
*447 FILLER_0_1_169
*448 FILLER_0_1_181
*449 FILLER_0_1_189
*450 FILLER_0_1_19
*451 FILLER_0_1_25
*452 FILLER_0_1_48
*453 FILLER_0_1_57
*454 FILLER_0_1_61
*455 FILLER_0_1_67
*456 FILLER_0_1_7
*457 FILLER_0_1_79
*458 FILLER_0_1_91
*459 FILLER_0_1_96
*460 FILLER_0_20_111
*461 FILLER_0_20_123
*462 FILLER_0_20_135
*463 FILLER_0_20_139
*464 FILLER_0_20_141
*465 FILLER_0_20_15
*466 FILLER_0_20_153
*467 FILLER_0_20_165
*468 FILLER_0_20_169
*469 FILLER_0_20_176
*470 FILLER_0_20_188
*471 FILLER_0_20_27
*472 FILLER_0_20_3
*473 FILLER_0_20_37
*474 FILLER_0_20_45
*475 FILLER_0_20_52
*476 FILLER_0_20_81
*477 FILLER_0_20_99
*478 FILLER_0_21_106
*479 FILLER_0_21_124
*480 FILLER_0_21_136
*481 FILLER_0_21_148
*482 FILLER_0_21_153
*483 FILLER_0_21_165
*484 FILLER_0_21_169
*485 FILLER_0_21_21
*486 FILLER_0_21_33
*487 FILLER_0_21_45
*488 FILLER_0_21_53
*489 FILLER_0_21_57
*490 FILLER_0_21_69
*491 FILLER_0_21_81
*492 FILLER_0_21_9
*493 FILLER_0_22_111
*494 FILLER_0_22_119
*495 FILLER_0_22_128
*496 FILLER_0_22_14
*497 FILLER_0_22_141
*498 FILLER_0_22_149
*499 FILLER_0_22_158
*500 FILLER_0_22_166
*501 FILLER_0_22_178
*502 FILLER_0_22_26
*503 FILLER_0_22_29
*504 FILLER_0_22_37
*505 FILLER_0_22_44
*506 FILLER_0_22_54
*507 FILLER_0_22_66
*508 FILLER_0_22_74
*509 FILLER_0_22_81
*510 FILLER_0_22_88
*511 FILLER_0_22_92
*512 FILLER_0_22_99
*513 FILLER_0_23_105
*514 FILLER_0_23_111
*515 FILLER_0_23_113
*516 FILLER_0_23_125
*517 FILLER_0_23_137
*518 FILLER_0_23_149
*519 FILLER_0_23_161
*520 FILLER_0_23_167
*521 FILLER_0_23_169
*522 FILLER_0_23_181
*523 FILLER_0_23_189
*524 FILLER_0_23_19
*525 FILLER_0_23_31
*526 FILLER_0_23_37
*527 FILLER_0_23_43
*528 FILLER_0_23_54
*529 FILLER_0_23_57
*530 FILLER_0_23_7
*531 FILLER_0_23_81
*532 FILLER_0_23_93
*533 FILLER_0_24_109
*534 FILLER_0_24_117
*535 FILLER_0_24_147
*536 FILLER_0_24_15
*537 FILLER_0_24_159
*538 FILLER_0_24_175
*539 FILLER_0_24_187
*540 FILLER_0_24_26
*541 FILLER_0_24_29
*542 FILLER_0_24_3
*543 FILLER_0_24_55
*544 FILLER_0_24_64
*545 FILLER_0_24_76
*546 FILLER_0_24_85
*547 FILLER_0_24_97
*548 FILLER_0_25_109
*549 FILLER_0_25_11
*550 FILLER_0_25_113
*551 FILLER_0_25_125
*552 FILLER_0_25_137
*553 FILLER_0_25_149
*554 FILLER_0_25_157
*555 FILLER_0_25_17
*556 FILLER_0_25_174
*557 FILLER_0_25_186
*558 FILLER_0_25_29
*559 FILLER_0_25_41
*560 FILLER_0_25_54
*561 FILLER_0_25_61
*562 FILLER_0_25_7
*563 FILLER_0_25_73
*564 FILLER_0_25_85
*565 FILLER_0_25_97
*566 FILLER_0_26_110
*567 FILLER_0_26_122
*568 FILLER_0_26_128
*569 FILLER_0_26_141
*570 FILLER_0_26_153
*571 FILLER_0_26_165
*572 FILLER_0_26_177
*573 FILLER_0_26_185
*574 FILLER_0_26_19
*575 FILLER_0_26_27
*576 FILLER_0_26_29
*577 FILLER_0_26_41
*578 FILLER_0_26_57
*579 FILLER_0_26_66
*580 FILLER_0_26_7
*581 FILLER_0_26_76
*582 FILLER_0_26_98
*583 FILLER_0_27_109
*584 FILLER_0_27_129
*585 FILLER_0_27_13
*586 FILLER_0_27_137
*587 FILLER_0_27_141
*588 FILLER_0_27_153
*589 FILLER_0_27_165
*590 FILLER_0_27_179
*591 FILLER_0_27_185
*592 FILLER_0_27_25
*593 FILLER_0_27_29
*594 FILLER_0_27_37
*595 FILLER_0_27_43
*596 FILLER_0_27_55
*597 FILLER_0_27_57
*598 FILLER_0_27_69
*599 FILLER_0_27_81
*600 FILLER_0_27_85
*601 FILLER_0_27_97
*602 FILLER_0_2_105
*603 FILLER_0_2_120
*604 FILLER_0_2_126
*605 FILLER_0_2_13
*606 FILLER_0_2_148
*607 FILLER_0_2_156
*608 FILLER_0_2_173
*609 FILLER_0_2_185
*610 FILLER_0_2_189
*611 FILLER_0_2_25
*612 FILLER_0_2_29
*613 FILLER_0_2_3
*614 FILLER_0_2_35
*615 FILLER_0_2_47
*616 FILLER_0_2_59
*617 FILLER_0_2_68
*618 FILLER_0_2_76
*619 FILLER_0_2_85
*620 FILLER_0_2_97
*621 FILLER_0_3_100
*622 FILLER_0_3_104
*623 FILLER_0_3_113
*624 FILLER_0_3_125
*625 FILLER_0_3_137
*626 FILLER_0_3_147
*627 FILLER_0_3_159
*628 FILLER_0_3_167
*629 FILLER_0_3_169
*630 FILLER_0_3_29
*631 FILLER_0_3_54
*632 FILLER_0_3_64
*633 FILLER_0_3_7
*634 FILLER_0_3_76
*635 FILLER_0_3_88
*636 FILLER_0_4_101
*637 FILLER_0_4_109
*638 FILLER_0_4_114
*639 FILLER_0_4_126
*640 FILLER_0_4_138
*641 FILLER_0_4_148
*642 FILLER_0_4_15
*643 FILLER_0_4_166
*644 FILLER_0_4_178
*645 FILLER_0_4_27
*646 FILLER_0_4_29
*647 FILLER_0_4_3
*648 FILLER_0_4_41
*649 FILLER_0_4_45
*650 FILLER_0_4_53
*651 FILLER_0_4_65
*652 FILLER_0_4_7
*653 FILLER_0_4_77
*654 FILLER_0_4_83
*655 FILLER_0_4_85
*656 FILLER_0_4_97
*657 FILLER_0_5_105
*658 FILLER_0_5_111
*659 FILLER_0_5_113
*660 FILLER_0_5_125
*661 FILLER_0_5_130
*662 FILLER_0_5_142
*663 FILLER_0_5_150
*664 FILLER_0_5_162
*665 FILLER_0_5_167
*666 FILLER_0_5_169
*667 FILLER_0_5_181
*668 FILLER_0_5_189
*669 FILLER_0_5_21
*670 FILLER_0_5_33
*671 FILLER_0_5_45
*672 FILLER_0_5_51
*673 FILLER_0_5_55
*674 FILLER_0_5_57
*675 FILLER_0_5_69
*676 FILLER_0_5_81
*677 FILLER_0_5_9
*678 FILLER_0_5_93
*679 FILLER_0_6_109
*680 FILLER_0_6_11
*681 FILLER_0_6_121
*682 FILLER_0_6_129
*683 FILLER_0_6_137
*684 FILLER_0_6_141
*685 FILLER_0_6_153
*686 FILLER_0_6_170
*687 FILLER_0_6_182
*688 FILLER_0_6_23
*689 FILLER_0_6_27
*690 FILLER_0_6_29
*691 FILLER_0_6_3
*692 FILLER_0_6_41
*693 FILLER_0_6_53
*694 FILLER_0_6_65
*695 FILLER_0_6_69
*696 FILLER_0_6_7
*697 FILLER_0_6_79
*698 FILLER_0_6_83
*699 FILLER_0_6_85
*700 FILLER_0_7_102
*701 FILLER_0_7_111
*702 FILLER_0_7_113
*703 FILLER_0_7_125
*704 FILLER_0_7_131
*705 FILLER_0_7_139
*706 FILLER_0_7_151
*707 FILLER_0_7_163
*708 FILLER_0_7_167
*709 FILLER_0_7_169
*710 FILLER_0_7_19
*711 FILLER_0_7_31
*712 FILLER_0_7_39
*713 FILLER_0_7_48
*714 FILLER_0_7_57
*715 FILLER_0_7_7
*716 FILLER_0_7_78
*717 FILLER_0_7_90
*718 FILLER_0_8_109
*719 FILLER_0_8_121
*720 FILLER_0_8_133
*721 FILLER_0_8_139
*722 FILLER_0_8_141
*723 FILLER_0_8_15
*724 FILLER_0_8_153
*725 FILLER_0_8_165
*726 FILLER_0_8_177
*727 FILLER_0_8_181
*728 FILLER_0_8_27
*729 FILLER_0_8_29
*730 FILLER_0_8_3
*731 FILLER_0_8_42
*732 FILLER_0_8_46
*733 FILLER_0_8_61
*734 FILLER_0_8_83
*735 FILLER_0_8_85
*736 FILLER_0_8_97
*737 FILLER_0_9_103
*738 FILLER_0_9_111
*739 FILLER_0_9_113
*740 FILLER_0_9_135
*741 FILLER_0_9_147
*742 FILLER_0_9_155
*743 FILLER_0_9_160
*744 FILLER_0_9_169
*745 FILLER_0_9_181
*746 FILLER_0_9_185
*747 FILLER_0_9_19
*748 FILLER_0_9_31
*749 FILLER_0_9_35
*750 FILLER_0_9_47
*751 FILLER_0_9_55
*752 FILLER_0_9_57
*753 FILLER_0_9_67
*754 FILLER_0_9_7
*755 FILLER_0_9_79
*756 FILLER_0_9_91
*757 PHY_EDGE_ROW_0_Left_28
*758 PHY_EDGE_ROW_0_Right_0
*759 PHY_EDGE_ROW_10_Left_38
*760 PHY_EDGE_ROW_10_Right_10
*761 PHY_EDGE_ROW_11_Left_39
*762 PHY_EDGE_ROW_11_Right_11
*763 PHY_EDGE_ROW_12_Left_40
*764 PHY_EDGE_ROW_12_Right_12
*765 PHY_EDGE_ROW_13_Left_41
*766 PHY_EDGE_ROW_13_Right_13
*767 PHY_EDGE_ROW_14_Left_42
*768 PHY_EDGE_ROW_14_Right_14
*769 PHY_EDGE_ROW_15_Left_43
*770 PHY_EDGE_ROW_15_Right_15
*771 PHY_EDGE_ROW_16_Left_44
*772 PHY_EDGE_ROW_16_Right_16
*773 PHY_EDGE_ROW_17_Left_45
*774 PHY_EDGE_ROW_17_Right_17
*775 PHY_EDGE_ROW_18_Left_46
*776 PHY_EDGE_ROW_18_Right_18
*777 PHY_EDGE_ROW_19_Left_47
*778 PHY_EDGE_ROW_19_Right_19
*779 PHY_EDGE_ROW_1_Left_29
*780 PHY_EDGE_ROW_1_Right_1
*781 PHY_EDGE_ROW_20_Left_48
*782 PHY_EDGE_ROW_20_Right_20
*783 PHY_EDGE_ROW_21_Left_49
*784 PHY_EDGE_ROW_21_Right_21
*785 PHY_EDGE_ROW_22_Left_50
*786 PHY_EDGE_ROW_22_Right_22
*787 PHY_EDGE_ROW_23_Left_51
*788 PHY_EDGE_ROW_23_Right_23
*789 PHY_EDGE_ROW_24_Left_52
*790 PHY_EDGE_ROW_24_Right_24
*791 PHY_EDGE_ROW_25_Left_53
*792 PHY_EDGE_ROW_25_Right_25
*793 PHY_EDGE_ROW_26_Left_54
*794 PHY_EDGE_ROW_26_Right_26
*795 PHY_EDGE_ROW_27_Left_55
*796 PHY_EDGE_ROW_27_Right_27
*797 PHY_EDGE_ROW_2_Left_30
*798 PHY_EDGE_ROW_2_Right_2
*799 PHY_EDGE_ROW_3_Left_31
*800 PHY_EDGE_ROW_3_Right_3
*801 PHY_EDGE_ROW_4_Left_32
*802 PHY_EDGE_ROW_4_Right_4
*803 PHY_EDGE_ROW_5_Left_33
*804 PHY_EDGE_ROW_5_Right_5
*805 PHY_EDGE_ROW_6_Left_34
*806 PHY_EDGE_ROW_6_Right_6
*807 PHY_EDGE_ROW_7_Left_35
*808 PHY_EDGE_ROW_7_Right_7
*809 PHY_EDGE_ROW_8_Left_36
*810 PHY_EDGE_ROW_8_Right_8
*811 PHY_EDGE_ROW_9_Left_37
*812 PHY_EDGE_ROW_9_Right_9
*813 TAP_TAPCELL_ROW_0_56
*814 TAP_TAPCELL_ROW_0_57
*815 TAP_TAPCELL_ROW_0_58
*816 TAP_TAPCELL_ROW_0_59
*817 TAP_TAPCELL_ROW_0_60
*818 TAP_TAPCELL_ROW_0_61
*819 TAP_TAPCELL_ROW_10_89
*820 TAP_TAPCELL_ROW_10_90
*821 TAP_TAPCELL_ROW_10_91
*822 TAP_TAPCELL_ROW_11_92
*823 TAP_TAPCELL_ROW_11_93
*824 TAP_TAPCELL_ROW_11_94
*825 TAP_TAPCELL_ROW_12_95
*826 TAP_TAPCELL_ROW_12_96
*827 TAP_TAPCELL_ROW_12_97
*828 TAP_TAPCELL_ROW_13_100
*829 TAP_TAPCELL_ROW_13_98
*830 TAP_TAPCELL_ROW_13_99
*831 TAP_TAPCELL_ROW_14_101
*832 TAP_TAPCELL_ROW_14_102
*833 TAP_TAPCELL_ROW_14_103
*834 TAP_TAPCELL_ROW_15_104
*835 TAP_TAPCELL_ROW_15_105
*836 TAP_TAPCELL_ROW_15_106
*837 TAP_TAPCELL_ROW_16_107
*838 TAP_TAPCELL_ROW_16_108
*839 TAP_TAPCELL_ROW_16_109
*840 TAP_TAPCELL_ROW_17_110
*841 TAP_TAPCELL_ROW_17_111
*842 TAP_TAPCELL_ROW_17_112
*843 TAP_TAPCELL_ROW_18_113
*844 TAP_TAPCELL_ROW_18_114
*845 TAP_TAPCELL_ROW_18_115
*846 TAP_TAPCELL_ROW_19_116
*847 TAP_TAPCELL_ROW_19_117
*848 TAP_TAPCELL_ROW_19_118
*849 TAP_TAPCELL_ROW_1_62
*850 TAP_TAPCELL_ROW_1_63
*851 TAP_TAPCELL_ROW_1_64
*852 TAP_TAPCELL_ROW_20_119
*853 TAP_TAPCELL_ROW_20_120
*854 TAP_TAPCELL_ROW_20_121
*855 TAP_TAPCELL_ROW_21_122
*856 TAP_TAPCELL_ROW_21_123
*857 TAP_TAPCELL_ROW_21_124
*858 TAP_TAPCELL_ROW_22_125
*859 TAP_TAPCELL_ROW_22_126
*860 TAP_TAPCELL_ROW_22_127
*861 TAP_TAPCELL_ROW_23_128
*862 TAP_TAPCELL_ROW_23_129
*863 TAP_TAPCELL_ROW_23_130
*864 TAP_TAPCELL_ROW_24_131
*865 TAP_TAPCELL_ROW_24_132
*866 TAP_TAPCELL_ROW_24_133
*867 TAP_TAPCELL_ROW_25_134
*868 TAP_TAPCELL_ROW_25_135
*869 TAP_TAPCELL_ROW_25_136
*870 TAP_TAPCELL_ROW_26_137
*871 TAP_TAPCELL_ROW_26_138
*872 TAP_TAPCELL_ROW_26_139
*873 TAP_TAPCELL_ROW_27_140
*874 TAP_TAPCELL_ROW_27_141
*875 TAP_TAPCELL_ROW_27_142
*876 TAP_TAPCELL_ROW_27_143
*877 TAP_TAPCELL_ROW_27_144
*878 TAP_TAPCELL_ROW_27_145
*879 TAP_TAPCELL_ROW_2_65
*880 TAP_TAPCELL_ROW_2_66
*881 TAP_TAPCELL_ROW_2_67
*882 TAP_TAPCELL_ROW_3_68
*883 TAP_TAPCELL_ROW_3_69
*884 TAP_TAPCELL_ROW_3_70
*885 TAP_TAPCELL_ROW_4_71
*886 TAP_TAPCELL_ROW_4_72
*887 TAP_TAPCELL_ROW_4_73
*888 TAP_TAPCELL_ROW_5_74
*889 TAP_TAPCELL_ROW_5_75
*890 TAP_TAPCELL_ROW_5_76
*891 TAP_TAPCELL_ROW_6_77
*892 TAP_TAPCELL_ROW_6_78
*893 TAP_TAPCELL_ROW_6_79
*894 TAP_TAPCELL_ROW_7_80
*895 TAP_TAPCELL_ROW_7_81
*896 TAP_TAPCELL_ROW_7_82
*897 TAP_TAPCELL_ROW_8_83
*898 TAP_TAPCELL_ROW_8_84
*899 TAP_TAPCELL_ROW_8_85
*900 TAP_TAPCELL_ROW_9_86
*901 TAP_TAPCELL_ROW_9_87
*902 TAP_TAPCELL_ROW_9_88
*903 _170_
*904 _171_
*905 _172_
*906 _173_
*907 _174_
*908 _175_
*909 _176_
*910 _177_
*911 _178_
*912 _179_
*913 _180_
*914 _181_
*915 _182_
*916 _183_
*917 _184_
*918 _185_
*919 _186_
*920 _187_
*921 _188_
*922 _189_
*923 _190_
*924 _191_
*925 _192_
*926 _193_
*927 _194_
*928 _195_
*929 _196_
*930 _197_
*931 _198_
*932 _199_
*933 _200_
*934 _201_
*935 _202_
*936 _203_
*937 _204_
*938 _205_
*939 _206_
*940 _207_
*941 _208_
*942 _209_
*943 _210_
*944 _211_
*945 _212_
*946 _213_
*947 _214_
*948 _215_
*949 _216_
*950 _217_
*951 _218_
*952 _219_
*953 _220_
*954 _221_
*955 _222_
*956 _223_
*957 _224_
*958 _225_
*959 _226_
*960 _227_
*961 _228_
*962 _229_
*963 _230_
*964 _231_
*965 _232_
*966 _233_
*967 _234_
*968 _235_
*969 _236_
*970 _237_
*971 _238_
*972 _239_
*973 _240_
*974 _241_
*975 _242_
*976 _243_
*977 _244_
*978 _245_
*979 _246_
*980 _247_
*981 _248_
*982 _249_
*983 _250_
*984 _251_
*985 _252_
*986 _253_
*987 _254_
*988 _255_
*989 _256_
*990 _257_
*991 _258_
*992 _259_
*993 _260_
*994 _261_
*995 _262_
*996 _263_
*997 _264_
*998 _265_
*999 _266_
*1000 _267_
*1001 _268_
*1002 _269_
*1003 _270_
*1004 _271_
*1005 _272_
*1006 _273_
*1007 _274_
*1008 _275_
*1009 _276_
*1010 _277_
*1011 _278_
*1012 _279_
*1013 _280_
*1014 _281_
*1015 _282_
*1016 _283_
*1017 _284_
*1018 _285_
*1019 _286_
*1020 _287_
*1021 _288_
*1022 _289_
*1023 _290_
*1024 _291_
*1025 _292_
*1026 _293_
*1027 _294_
*1028 _295_
*1029 _296_
*1030 _297_
*1031 _298_
*1032 _299_
*1033 _300_
*1034 _301_
*1035 _302_
*1036 _303_
*1037 _304_
*1038 _305_
*1039 _306_
*1040 _307_
*1041 _308_
*1042 _309_
*1043 _310_
*1044 _311_
*1045 _312_
*1046 _313_
*1047 _314_
*1048 _315_
*1049 _316_
*1050 _317_
*1051 _318_
*1052 _319_
*1053 _320_
*1054 _321_
*1055 _322_
*1056 _323_
*1057 _324_
*1058 _325_
*1059 _326_
*1060 _327_
*1061 _328_
*1062 _329_
*1063 _330_
*1064 _331_
*1065 _332_
*1066 _333_
*1067 _334_
*1068 _335_
*1069 _336_
*1070 _337_
*1071 _338_
*1072 _339_
*1073 _340_
*1074 _341_
*1075 _342_
*1076 _343_
*1077 _344_
*1078 _345_
*1079 _346_
*1080 _347_
*1081 input1
*1082 input10
*1083 input11
*1084 input12
*1085 input13
*1086 input14
*1087 input15
*1088 input16
*1089 input17
*1090 input18
*1091 input19
*1092 input2
*1093 input3
*1094 input4
*1095 input5
*1096 input6
*1097 input7
*1098 input8
*1099 input9
*1100 output20
*1101 output21
*1102 output22
*1103 output23
*1104 output24
*1105 output25
*1106 output26
*1107 output27
*1108 rebuffer1
*1109 rebuffer2
*1110 rebuffer3

*PORTS
A[0] I
A[1] I
A[2] I
A[3] I
A[4] I
A[5] I
A[6] I
A[7] I
B[0] I
B[1] I
B[2] I
B[3] I
B[4] I
B[5] I
B[6] I
B[7] I
OPCODE[0] I
OPCODE[1] I
OPCODE[2] I
OUT[0] O
OUT[1] O
OUT[2] O
OUT[3] O
OUT[4] O
OUT[5] O
OUT[6] O
OUT[7] O

*D_NET *1 0.000888806
*CONN
*P A[0] I
*I *1081:A I *D sky130_fd_sc_hd__buf_1
*CAP
1 A[0] 0.00041619
2 *1081:A 0
3 *1:21 0.00041619
4 *1:21 *1092:A 0
5 *1:21 *16:21 0
6 *1:21 *133:149 4.82016e-05
7 *1:21 *171:20 8.22421e-06
*RES
1 A[0] *1:21 42.9332 
2 *1:21 *1081:A 23 
*END

*D_NET *2 0.000930659
*CONN
*P A[1] I
*I *1092:A I *D sky130_fd_sc_hd__clkbuf_2
*CAP
1 A[1] 0.000363635
2 *1092:A 0.000363635
3 *1092:A *3:21 0
4 *1092:A *51:10 0.000101694
5 *1092:A *205:18 0.000101694
6 *1:21 *1092:A 0
*RES
1 A[1] *1092:A 48.2212 
*END

*D_NET *3 0.00106783
*CONN
*P A[2] I
*I *1093:A I *D sky130_fd_sc_hd__clkbuf_2
*CAP
1 A[2] 0.000529801
2 *1093:A 0
3 *3:21 0.000529801
4 *3:21 *4:21 0
5 *3:21 *171:20 8.22421e-06
6 *1092:A *3:21 0
*RES
1 A[2] *3:21 43.4096 
2 *3:21 *1093:A 23 
*END

*D_NET *4 0.000988936
*CONN
*P A[3] I
*I *1094:A I *D sky130_fd_sc_hd__buf_2
*CAP
1 A[3] 0.000490356
2 *1094:A 0
3 *4:21 0.000490356
4 *4:21 *5:21 0
5 *4:21 *171:20 8.22421e-06
6 *3:21 *4:21 0
*RES
1 A[3] *4:21 42.9332 
2 *4:21 *1094:A 23 
*END

*D_NET *5 0.00106783
*CONN
*P A[4] I
*I *1095:A I *D sky130_fd_sc_hd__clkbuf_4
*CAP
1 A[4] 0.000529801
2 *1095:A 0
3 *5:21 0.000529801
4 *5:21 *6:21 0
5 *5:21 *171:20 8.22421e-06
6 *4:21 *5:21 0
*RES
1 A[4] *5:21 43.4096 
2 *5:21 *1095:A 23 
*END

*D_NET *6 0.000952965
*CONN
*P A[5] I
*I *1096:A I *D sky130_fd_sc_hd__buf_2
*CAP
1 A[5] 0.000385072
2 *1096:A 0
3 *6:21 0.000385072
4 *6:21 *1097:A 0
5 *6:21 *171:14 0.00018282
6 *5:21 *6:21 0
*RES
1 A[5] *6:21 42.9332 
2 *6:21 *1096:A 23 
*END

*D_NET *7 0.000666051
*CONN
*P A[6] I
*I *1097:A I *D sky130_fd_sc_hd__buf_2
*CAP
1 A[6] 0.000333025
2 *1097:A 0.000333025
3 *1097:A *8:17 0
4 *1097:A *52:10 0
5 *6:21 *1097:A 0
*RES
1 A[6] *1097:A 48.4116 
*END

*D_NET *8 0.000854158
*CONN
*P A[7] I
*I *1098:A I *D sky130_fd_sc_hd__buf_2
*CAP
1 A[7] 0.000427079
2 *1098:A 0
3 *8:17 0.000427079
4 *8:17 *228:8 0
5 *1097:A *8:17 0
*RES
1 A[7] *8:17 29.6234 
2 *8:17 *1098:A 23 
*END

*D_NET *9 0.000877326
*CONN
*P B[0] I
*I *1099:A I *D sky130_fd_sc_hd__dlymetal6s2s_1
*CAP
1 B[0] 0.000438663
2 *1099:A 0
3 *9:11 0.000438663
4 *9:11 *1082:A 0
*RES
1 B[0] *9:11 28.3047 
2 *9:11 *1099:A 23 
*END

*D_NET *10 0.000736363
*CONN
*P B[1] I
*I *1082:A I *D sky130_fd_sc_hd__clkbuf_2
*CAP
1 B[1] 0.000368181
2 *1082:A 0.000368181
3 *1082:A *11:17 0
4 *1082:A *92:26 0
5 *9:11 *1082:A 0
*RES
1 B[1] *1082:A 48.9255 
*END

*D_NET *11 0.000689498
*CONN
*P B[2] I
*I *1083:A I *D sky130_fd_sc_hd__clkbuf_2
*CAP
1 B[2] 0.000344749
2 *1083:A 0
3 *11:17 0.000344749
4 *11:17 *12:17 0
5 *1082:A *11:17 0
*RES
1 B[2] *11:17 27.6348 
2 *11:17 *1083:A 23 
*END

*D_NET *12 0.000689498
*CONN
*P B[3] I
*I *1084:A I *D sky130_fd_sc_hd__clkbuf_2
*CAP
1 B[3] 0.000344749
2 *1084:A 0
3 *12:17 0.000344749
4 *12:17 *1085:A 0
5 *12:17 *54:28 0
6 *11:17 *12:17 0
*RES
1 B[3] *12:17 27.6348 
2 *12:17 *1084:A 23 
*END

*D_NET *13 0.000740273
*CONN
*P B[4] I
*I *1085:A I *D sky130_fd_sc_hd__clkbuf_4
*CAP
1 B[4] 0.000305745
2 *1085:A 0.000305745
3 *1085:A *14:17 0
4 *1085:A *54:28 2.79653e-05
5 *1085:A *168:18 5.11185e-05
6 *1085:A *171:30 0
7 *1085:A *205:29 4.96982e-05
8 *12:17 *1085:A 0
*RES
1 B[4] *1085:A 48.2212 
*END

*D_NET *14 0.00076179
*CONN
*P B[5] I
*I *1086:A I *D sky130_fd_sc_hd__buf_2
*CAP
1 B[5] 0.000380895
2 *1086:A 0
3 *14:17 0.000380895
4 *14:17 *15:21 0
5 *14:17 *171:20 0
6 *1085:A *14:17 0
*RES
1 B[5] *14:17 27.1584 
2 *14:17 *1086:A 23 
*END

*D_NET *15 0.000996827
*CONN
*P B[6] I
*I *1087:A I *D sky130_fd_sc_hd__clkbuf_2
*CAP
1 B[6] 0.000494302
2 *1087:A 0
3 *15:21 0.000494302
4 *15:21 *16:21 0
5 *15:21 *171:20 8.22421e-06
6 *14:17 *15:21 0
*RES
1 B[6] *15:21 43.4096 
2 *15:21 *1087:A 23 
*END

*D_NET *16 0.00103343
*CONN
*P B[7] I
*I *1088:A I *D sky130_fd_sc_hd__clkbuf_2
*CAP
1 B[7] 0.000449524
2 *1088:A 0
3 *16:21 0.000449524
4 *16:21 *51:20 2.93747e-05
5 *16:21 *168:12 9.67842e-05
6 *16:21 *171:20 8.22421e-06
7 *1:21 *16:21 0
8 *15:21 *16:21 0
*RES
1 B[7] *16:21 43.4096 
2 *16:21 *1088:A 23 
*END

*D_NET *17 0.000958981
*CONN
*P OPCODE[0] I
*I *1089:A I *D sky130_fd_sc_hd__clkbuf_2
*CAP
1 OPCODE[0] 0.000477467
2 *1089:A 0.000477467
3 *1089:A *208:10 4.04598e-06
4 *1089:A *210:124 0
*RES
1 OPCODE[0] *1089:A 47.4457 
*END

*D_NET *18 0.00105863
*CONN
*P OPCODE[1] I
*I *1090:A I *D sky130_fd_sc_hd__clkbuf_4
*CAP
1 OPCODE[1] 0.000480074
2 *1090:A 0.000480074
3 *1090:A *201:112 9.84851e-05
*RES
1 OPCODE[1] *1090:A 47.4457 
*END

*D_NET *19 0.000963779
*CONN
*P OPCODE[2] I
*I *1091:A I *D sky130_fd_sc_hd__clkbuf_4
*CAP
1 OPCODE[2] 0.000443331
2 *1091:A 0.000443331
3 *1091:A *997:A 2.93747e-05
4 *1091:A *997:C 2.93747e-05
5 *1091:A *196:68 1.83667e-05
*RES
1 OPCODE[2] *1091:A 47.3214 
*END

*D_NET *20 0.00191663
*CONN
*P OUT[0] O
*I *1100:X O *D sky130_fd_sc_hd__buf_2
*CAP
1 OUT[0] 0.000393757
2 *1100:X 0.000549869
3 *20:14 0.000943627
4 *20:14 *142:22 0
5 *20:14 *212:28 2.93747e-05
*RES
1 *1100:X *20:14 47.9532 
2 *20:14 OUT[0] 9.4448 
*END

*D_NET *21 0.000755381
*CONN
*P OUT[1] O
*I *1101:X O *D sky130_fd_sc_hd__buf_2
*CAP
1 OUT[1] 0.000312584
2 *1101:X 0.000312584
3 OUT[1] *212:28 0.000130212
*RES
1 *1101:X OUT[1] 48.6592 
*END

*D_NET *22 0.000615091
*CONN
*P OUT[2] O
*I *1102:X O *D sky130_fd_sc_hd__buf_2
*CAP
1 OUT[2] 0.000295303
2 *1102:X 0.000295303
3 OUT[2] *212:28 2.44846e-05
*RES
1 *1102:X OUT[2] 47.2507 
*END

*D_NET *23 0.000563588
*CONN
*P OUT[3] O
*I *1103:X O *D sky130_fd_sc_hd__buf_2
*CAP
1 OUT[3] 0.000263393
2 *1103:X 0.000263393
3 OUT[3] *48:33 1.34542e-05
4 OUT[3] *212:22 2.33476e-05
*RES
1 *1103:X OUT[3] 47.2507 
*END

*D_NET *24 0.000788597
*CONN
*P OUT[4] O
*I *1104:X O *D sky130_fd_sc_hd__buf_2
*CAP
1 OUT[4] 0.000321419
2 *1104:X 0.000321419
3 OUT[4] *212:22 7.1693e-05
4 OUT[4] *215:20 7.40663e-05
*RES
1 *1104:X OUT[4] 47.955 
*END

*D_NET *25 0.00127998
*CONN
*P OUT[5] O
*I *1105:X O *D sky130_fd_sc_hd__buf_2
*CAP
1 OUT[5] 0.000259188
2 *1105:X 0.000127802
3 *25:8 0.00038699
4 OUT[5] *212:22 0
5 *25:8 *196:14 0.000169211
6 *25:8 *215:20 0.00033679
*RES
1 *1105:X *25:8 42.5468 
2 *25:8 OUT[5] 8.9296 
*END

*D_NET *26 0.00103004
*CONN
*P OUT[6] O
*I *1106:X O *D sky130_fd_sc_hd__buf_2
*CAP
1 OUT[6] 0.000512228
2 *1106:X 0.000512228
3 OUT[6] *132:8 5.58873e-06
4 OUT[6] *132:18 0
*RES
1 *1106:X OUT[6] 47.68 
*END

*D_NET *27 0.00107944
*CONN
*P OUT[7] O
*I *1107:X O *D sky130_fd_sc_hd__buf_2
*CAP
1 OUT[7] 0.000264607
2 *1107:X 0.00020417
3 *27:8 0.000468777
4 *27:8 *215:18 0.000141888
*RES
1 *1107:X *27:8 42.5468 
2 *27:8 OUT[7] 9.01547 
*END

*D_NET *30 0.0180227
*CONN
*I *977:A1 I *D sky130_fd_sc_hd__o21a_2
*I *978:B I *D sky130_fd_sc_hd__or3_4
*I *975:X O *D sky130_fd_sc_hd__and3_1
*CAP
1 *977:A1 0.000446625
2 *978:B 0.000842276
3 *975:X 0.00126229
4 *30:16 0.00232031
5 *30:8 0.00192466
6 *30:6 0.00126229
7 *977:A1 *31:26 0.000230463
8 *977:A1 *131:125 0.000786163
9 *977:A1 *157:12 0.000636058
10 *977:A1 *170:29 4.24694e-06
11 *978:B *950:A2 0.000126615
12 *978:B *31:12 5.67058e-05
13 *978:B *31:16 0.000144067
14 *978:B *131:65 0.00106453
15 *978:B *156:18 0.000537574
16 *978:B *169:14 2.93845e-05
17 *978:B *175:14 0.000986835
18 *30:6 *72:6 1.41129e-05
19 *30:6 *106:8 0.00101821
20 *30:6 *141:82 0.000427286
21 *30:16 *32:16 2.87208e-05
22 *30:16 *61:28 7.70384e-05
23 *30:16 *80:21 0
24 *30:16 *131:47 2.54046e-05
25 *30:16 *131:115 0.000129715
26 *30:16 *131:125 0.000207912
27 *30:16 *136:116 5.32959e-06
28 *30:16 *136:126 0.000750291
29 *30:16 *154:37 0.000561159
30 *30:16 *155:43 0.000662654
31 *30:16 *157:12 8.4047e-05
32 *30:16 *159:28 0.00126347
33 *30:16 *170:29 3.46927e-05
34 *30:16 *178:46 7.16228e-05
*RES
1 *975:X *30:6 39.82 
2 *30:6 *30:8 15 
3 *30:8 *30:16 49.365 
4 *30:16 *978:B 47.9193 
5 *30:8 *977:A1 49.8279 
*END

*D_NET *31 0.0139412
*CONN
*I *978:C I *D sky130_fd_sc_hd__or3_4
*I *977:A2 I *D sky130_fd_sc_hd__o21a_2
*I *976:Y O *D sky130_fd_sc_hd__a21oi_1
*CAP
1 *978:C 0
2 *977:A2 0
3 *976:Y 0.000279583
4 *31:26 0.000819165
5 *31:22 0.00264886
6 *31:16 0.00188795
7 *31:12 0.000337842
8 *31:12 *131:65 7.22251e-05
9 *31:12 *142:156 0.000122833
10 *31:12 *156:18 7.39994e-05
11 *31:16 *156:18 0.000269775
12 *31:22 *914:B1 0.000173142
13 *31:22 *973:C 2.11066e-05
14 *31:22 *993:A 0.000355324
15 *31:22 *48:14 4.09004e-05
16 *31:22 *56:43 0.000152369
17 *31:22 *87:12 0.000220012
18 *31:22 *134:143 5.71427e-05
19 *31:22 *136:179 0.000285519
20 *31:22 *155:22 0.00061923
21 *31:22 *184:8 0.000523576
22 *31:22 *192:88 0.000193218
23 *31:22 *194:18 0.000114166
24 *31:22 *204:96 7.93649e-05
25 *31:22 *204:100 8.18919e-05
26 *31:22 *222:42 0.000226185
27 *31:22 *222:52 0.000229577
28 *31:22 *224:87 0.000829919
29 *31:22 *226:57 0.000212902
30 *31:22 *226:65 0.000129072
31 *31:26 *32:16 0.000439948
32 *31:26 *131:125 2.19403e-05
33 *31:26 *139:18 0.00066597
34 *31:26 *140:14 0.000330829
35 *31:26 *194:26 0.000994443
36 *977:A1 *31:26 0.000230463
37 *978:B *31:12 5.67058e-05
38 *978:B *31:16 0.000144067
*RES
1 *976:Y *31:12 29.0486 
2 *31:12 *31:16 18.0036 
3 *31:16 *31:22 43.645 
4 *31:22 *31:26 38.0136 
5 *31:26 *977:A2 23 
6 *31:12 *978:C 23 
*END

*D_NET *32 0.0329296
*CONN
*I *983:A1 I *D sky130_fd_sc_hd__o21ai_4
*I *1047:A_N I *D sky130_fd_sc_hd__and2b_1
*I *980:A_N I *D sky130_fd_sc_hd__and3b_2
*I *1052:B I *D sky130_fd_sc_hd__or3_1
*I *977:X O *D sky130_fd_sc_hd__o21a_2
*CAP
1 *983:A1 0
2 *1047:A_N 0.00137664
3 *980:A_N 0.000118934
4 *1052:B 0
5 *977:X 0
6 *32:71 0.000800974
7 *32:56 0.00223527
8 *32:26 0.000957934
9 *32:24 0.00354849
10 *32:16 0.00440259
11 *32:4 0.00187332
12 *980:A_N *34:16 5.90132e-05
13 *980:A_N *34:31 1.37232e-05
14 *980:A_N *35:18 0.000113096
15 *980:A_N *73:26 0.000121284
16 *1047:A_N *67:24 0.00208286
17 *1047:A_N *98:8 1.96141e-05
18 *1047:A_N *149:143 0.000136743
19 *32:16 *39:22 0.000140883
20 *32:16 *41:61 4.40344e-05
21 *32:16 *64:22 1.17194e-05
22 *32:16 *131:115 4.73021e-05
23 *32:16 *131:125 2.19764e-05
24 *32:16 *131:139 2.93431e-05
25 *32:16 *134:111 7.83863e-05