*SPEF "ieee 1481-1999"
*DESIGN "labwork1_src"
*DATE "16:34:24 Friday April 25, 2025"
*VENDOR "The OpenROAD Project"
*PROGRAM "OpenROAD"
*VERSION "b16bda7e82721d10566ff7e2b68f1ff0be9f9e38"
*DESIGN_FLOW "NAME_SCOPE LOCAL" "PIN_CAP NONE"
*DIVIDER /
*DELIMITER :
*BUS_DELIMITER []
*T_UNIT 1 NS
*C_UNIT 1 PF
*R_UNIT 1 OHM
*L_UNIT 1 HENRY

*NAME_MAP
*3 in[0]
*4 in[1]
*5 in[2]
*6 in[3]
*7 in[4]
*8 in[5]
*9 in[6]
*10 in[7]
*11 out[0]
*12 out[1]
*13 out[2]
*14 out[3]
*15 out[4]
*16 out[5]
*17 out[6]
*18 out[7]
*19 _00_
*20 _01_
*21 _02_
*22 _03_
*23 _04_
*24 _05_
*25 _06_
*26 _07_
*27 _08_
*28 _09_
*29 net1
*30 net10
*31 net11
*32 net12
*33 net13
*34 net14
*35 net15
*36 net16
*37 net2
*38 net3
*39 net4
*40 net5
*41 net6
*42 net7
*43 net8
*44 net9
*45 FILLER_0_0_21
*46 FILLER_0_0_27
*47 FILLER_0_0_36
*48 FILLER_0_0_9
*49 FILLER_0_10_11
*50 FILLER_0_10_23
*51 FILLER_0_10_27
*52 FILLER_0_10_29
*53 FILLER_0_10_3
*54 FILLER_0_10_41
*55 FILLER_0_11_15
*56 FILLER_0_11_27
*57 FILLER_0_11_3
*58 FILLER_0_11_33
*59 FILLER_0_11_41
*60 FILLER_0_11_46
*61 FILLER_0_12_17
*62 FILLER_0_12_24
*63 FILLER_0_12_29
*64 FILLER_0_12_37
*65 FILLER_0_12_9
*66 FILLER_0_1_15
*67 FILLER_0_1_27
*68 FILLER_0_1_3
*69 FILLER_0_1_33
*70 FILLER_0_1_37
*71 FILLER_0_2_15
*72 FILLER_0_2_27
*73 FILLER_0_2_29
*74 FILLER_0_2_3
*75 FILLER_0_2_44
*76 FILLER_0_3_18
*77 FILLER_0_3_30
*78 FILLER_0_3_38
*79 FILLER_0_3_42
*80 FILLER_0_3_6
*81 FILLER_0_4_15
*82 FILLER_0_4_27
*83 FILLER_0_4_29
*84 FILLER_0_4_3
*85 FILLER_0_4_41
*86 FILLER_0_4_47
*87 FILLER_0_5_24
*88 FILLER_0_5_36
*89 FILLER_0_5_40
*90 FILLER_0_5_6
*91 FILLER_0_6_11
*92 FILLER_0_6_20
*93 FILLER_0_6_3
*94 FILLER_0_6_32
*95 FILLER_0_6_44
*96 FILLER_0_7_15
*97 FILLER_0_7_27
*98 FILLER_0_7_3
*99 FILLER_0_7_39
*100 FILLER_0_7_43
*101 FILLER_0_8_18
*102 FILLER_0_8_26
*103 FILLER_0_8_29
*104 FILLER_0_8_37
*105 FILLER_0_8_46
*106 FILLER_0_8_6
*107 FILLER_0_9_15
*108 FILLER_0_9_21
*109 FILLER_0_9_27
*110 FILLER_0_9_3
*111 FILLER_0_9_35
*112 FILLER_0_9_47
*113 PHY_EDGE_ROW_0_Left_13
*114 PHY_EDGE_ROW_0_Right_0
*115 PHY_EDGE_ROW_10_Left_23
*116 PHY_EDGE_ROW_10_Right_10
*117 PHY_EDGE_ROW_11_Left_24
*118 PHY_EDGE_ROW_11_Right_11
*119 PHY_EDGE_ROW_12_Left_25
*120 PHY_EDGE_ROW_12_Right_12
*121 PHY_EDGE_ROW_1_Left_14
*122 PHY_EDGE_ROW_1_Right_1
*123 PHY_EDGE_ROW_2_Left_15
*124 PHY_EDGE_ROW_2_Right_2
*125 PHY_EDGE_ROW_3_Left_16
*126 PHY_EDGE_ROW_3_Right_3
*127 PHY_EDGE_ROW_4_Left_17
*128 PHY_EDGE_ROW_4_Right_4
*129 PHY_EDGE_ROW_5_Left_18
*130 PHY_EDGE_ROW_5_Right_5
*131 PHY_EDGE_ROW_6_Left_19
*132 PHY_EDGE_ROW_6_Right_6
*133 PHY_EDGE_ROW_7_Left_20
*134 PHY_EDGE_ROW_7_Right_7
*135 PHY_EDGE_ROW_8_Left_21
*136 PHY_EDGE_ROW_8_Right_8
*137 PHY_EDGE_ROW_9_Left_22
*138 PHY_EDGE_ROW_9_Right_9
*139 TAP_TAPCELL_ROW_0_26
*140 TAP_TAPCELL_ROW_10_31
*141 TAP_TAPCELL_ROW_12_32
*142 TAP_TAPCELL_ROW_2_27
*143 TAP_TAPCELL_ROW_4_28
*144 TAP_TAPCELL_ROW_6_29
*145 TAP_TAPCELL_ROW_8_30
*146 _10_
*147 _11_
*148 _12_
*149 _13_
*150 _14_
*151 _15_
*152 _16_
*153 _17_
*154 _18_
*155 _19_
*156 _20_
*157 _21_
*158 _22_
*159 _23_
*160 _24_
*161 _25_
*162 _26_
*163 _27_
*164 input1
*165 input2
*166 input3
*167 input4
*168 input5
*169 input6
*170 input7
*171 input8
*172 output10
*173 output11
*174 output12
*175 output13
*176 output14
*177 output15
*178 output16
*179 output9

*PORTS
in[0] I
in[1] I
in[2] I
in[3] I
in[4] I
in[5] I
in[6] I
in[7] I
out[0] O
out[1] O
out[2] O
out[3] O
out[4] O
out[5] O
out[6] O
out[7] O

*D_NET *3 0.00101438
*CONN
*P in[0] I
*I *164:A I *D sky130_fd_sc_hd__buf_1
*CAP
1 in[0] 0.000507191
2 *164:A 0.000507191
3 *164:A *165:A 0
*RES
1 in[0] *164:A 10.2018 
*END

*D_NET *4 0.000740324
*CONN
*P in[1] I
*I *165:A I *D sky130_fd_sc_hd__buf_1
*CAP
1 in[1] 0.000370162
2 *165:A 0.000370162
3 *165:A *166:A 0
4 *164:A *165:A 0
*RES
1 in[1] *165:A 8.2293 
*END

*D_NET *5 0.000812418
*CONN
*P in[2] I
*I *166:A I *D sky130_fd_sc_hd__buf_1
*CAP
1 in[2] 0.000397326
2 *166:A 0.000397326
3 *166:A *162:A 0
4 *166:A *167:A 0
5 *166:A *172:A 1.77665e-05
6 *165:A *166:A 0
*RES
1 in[2] *166:A 8.72543 
*END

*D_NET *6 0.000645774
*CONN
*P in[3] I
*I *167:A I *D sky130_fd_sc_hd__buf_1
*CAP
1 in[3] 0.000322887
2 *167:A 0.000322887
3 *167:A *162:A 0
4 *167:A *168:A 0
5 *166:A *167:A 0
*RES
1 in[3] *167:A 7.8543 
*END

*D_NET *7 0.0005615
*CONN
*P in[4] I
*I *168:A I *D sky130_fd_sc_hd__buf_1
*CAP
1 in[4] 0.00028075
2 *168:A 0.00028075
3 *168:A *169:A 0
4 *167:A *168:A 0
*RES
1 in[4] *168:A 7.0893 
*END

*D_NET *8 0.000666425
*CONN
*P in[5] I
*I *169:A I *D sky130_fd_sc_hd__buf_1
*CAP
1 in[5] 0.000333212
2 *169:A 0.000333212
3 *169:A *170:A 0
4 *168:A *169:A 0
*RES
1 in[5] *169:A 8.1093 
*END

*D_NET *9 0.000523624
*CONN
*P in[6] I
*I *170:A I *D sky130_fd_sc_hd__buf_1
*CAP
1 in[6] 0.000261812
2 *170:A 0.000261812
3 *170:A *171:A 0
4 *169:A *170:A 0
*RES
1 in[6] *170:A 6.8343 
*END

*D_NET *10 0.00115517
*CONN
*P in[7] I
*I *171:A I *D sky130_fd_sc_hd__clkbuf_1
*CAP
1 in[7] 0.000577586
2 *171:A 0.000577586
3 *170:A *171:A 0
*RES
1 in[7] *171:A 10.6316 
*END

*D_NET *11 0.00109227
*CONN
*P out[0] O
*I *179:X O *D sky130_fd_sc_hd__buf_2
*CAP
1 out[0] 0.000546133
2 *179:X 0.000546133
3 out[0] out[1] 0
*RES
1 *179:X out[0] 9.66983 
*END

*D_NET *12 0.000411239
*CONN
*P out[1] O
*I *172:X O *D sky130_fd_sc_hd__buf_2
*CAP
1 out[1] 0.00020562
2 *172:X 0.00020562
3 out[1] out[2] 0
4 out[0] out[1] 0
*RES
1 *172:X out[1] 4.84677 
*END

*D_NET *13 0.000419029
*CONN
*P out[2] O
*I *173:X O *D sky130_fd_sc_hd__buf_2
*CAP
1 out[2] 0.000209514
2 *173:X 0.000209514
3 out[2] out[3] 0
4 out[2] *23:10 0
5 out[1] out[2] 0
*RES
1 *173:X out[2] 4.84677 
*END

*D_NET *14 0.000484638
*CONN
*P out[3] O
*I *174:X O *D sky130_fd_sc_hd__buf_2
*CAP
1 out[3] 0.000221409
2 *174:X 0.000221409
3 out[3] out[4] 0
4 out[3] *148:B1 4.18203e-05
5 out[3] *151:A 0
6 out[2] out[3] 0
*RES
1 *174:X out[3] 5.10177 
*END

*D_NET *15 0.000444667
*CONN
*P out[4] O
*I *175:X O *D sky130_fd_sc_hd__buf_2
*CAP
1 out[4] 0.000202619
2 *175:X 0.000202619
3 out[4] out[5] 0
4 out[4] *148:A3 2.05641e-05
5 out[4] *148:B1 1.88656e-05
6 out[3] out[4] 0
*RES
1 *175:X out[4] 4.84677 
*END

*D_NET *16 0.000659648
*CONN
*P out[5] O
*I *176:X O *D sky130_fd_sc_hd__buf_2
*CAP
1 out[5] 0.000222329
2 *176:X 0.000222329
3 out[5] out[6] 0
4 out[5] *148:A3 0.000108647
5 out[5] *148:B1 0.000106344
6 out[4] out[5] 0
*RES
1 *176:X out[5] 5.86677 
*END

*D_NET *17 0.000790431
*CONN
*P out[6] O
*I *177:X O *D sky130_fd_sc_hd__buf_2
*CAP
1 out[6] 0.000395216
2 *177:X 0.000395216
3 out[6] out[7] 0
4 out[5] out[6] 0
*RES
1 *177:X out[6] 5.19637 
*END

*D_NET *18 0.000971234
*CONN
*P out[7] O
*I *178:X O *D sky130_fd_sc_hd__clkbuf_4
*CAP
1 out[7] 0.000485617
2 *178:X 0.000485617
3 out[6] out[7] 0
*RES
1 *178:X out[7] 10.1435 
*END

*D_NET *19 0.00254209
*CONN
*I *147:B I *D sky130_fd_sc_hd__xnor2_1
*I *162:A I *D sky130_fd_sc_hd__nor2_1
*I *146:Y O *D sky130_fd_sc_hd__nor2_1
*CAP
1 *147:B 0
2 *162:A 0.000681311
3 *146:Y 0.000183022
4 *19:6 0.000864334
5 *162:A *149:D 0
6 *162:A *162:B 6.47594e-05
7 *162:A *38:12 0
8 *19:6 *148:A3 0.000329007
9 *19:6 *173:A 0.000419654
10 *166:A *162:A 0
11 *167:A *162:A 0
*RES
1 *146:Y *19:6 7.225 
2 *19:6 *162:A 16.82 
3 *19:6 *147:B 1.6 
*END

*D_NET *20 0.00218071
*CONN
*I *150:A_N I *D sky130_fd_sc_hd__and2b_1
*I *148:X O *D sky130_fd_sc_hd__o31a_1
*CAP
1 *150:A_N 0.000542385
2 *148:X 0.000542385
3 *150:A_N *148:B1 0
4 *150:A_N *151:A 0.000477677
5 *150:A_N *160:A 0.000120186
6 *150:A_N *175:A 0.0004273
7 *150:A_N *177:A 7.07801e-05
8 *150:A_N *23:10 0
*RES
1 *148:X *150:A_N 21.015 
*END

*D_NET *21 0.00745776
*CONN
*I *152:B I *D sky130_fd_sc_hd__nor2_1
*I *157:A3 I *D sky130_fd_sc_hd__o31ai_1
*I *150:B I *D sky130_fd_sc_hd__and2b_1
*I *156:D I *D sky130_fd_sc_hd__or4_1
*I *153:B I *D sky130_fd_sc_hd__and2_1
*I *149:X O *D sky130_fd_sc_hd__or4_2
*CAP
1 *152:B 5.59752e-05
2 *157:A3 0.000304122
3 *150:B 0.000153968
4 *156:D 0.000589459
5 *153:B 0
6 *149:X 0.000195894
7 *21:19 0.000930592
8 *21:17 0.000491287
9 *21:15 0.000132856
10 *21:8 0.000272775
11 *150:B *148:B1 0.000313852
12 *152:B *152:A 0.000316421
13 *152:B *23:10 0.000165698
14 *156:D *154:B 0.000145195
15 *156:D *157:B1 8.40269e-05
16 *156:D *159:A 0.000589061
17 *156:D *23:10 0.000587387
18 *156:D *40:8 2.58493e-05
19 *156:D *40:23 4.21973e-05
20 *157:A3 *157:A1 6.6196e-05
21 *157:A3 *157:B1 4.82919e-05
22 *157:A3 *158:B 0.000311282
23 *157:A3 *172:A 0
24 *157:A3 *179:A 0.000353049
25 *21:8 *152:A 4.60084e-05
26 *21:8 *29:25 4.80285e-05
27 *21:8 *40:27 0.0001249
28 *21:15 *152:A 0.000198939
29 *21:19 *154:B 0.000129838
30 *21:19 *158:B 0
31 *21:19 *159:A 0.000110683
32 *21:19 *172:A 0
33 *21:19 *173:A 0.000127181
34 *21:19 *23:10 0.000496742
*RES
1 *149:X *21:8 5.08 
2 *21:8 *153:B 1.6 
3 *21:8 *21:15 1.83 
4 *21:15 *21:17 2 
5 *21:17 *21:19 6.225 
6 *21:19 *156:D 16.92 
7 *21:19 *150:B 6.93 
8 *21:17 *157:A3 10.53 
9 *21:15 *152:B 4.465 
*END

*D_NET *22 0.00125642
*CONN
*I *151:A I *D sky130_fd_sc_hd__clkbuf_1
*I *150:X O *D sky130_fd_sc_hd__and2b_1
*CAP
1 *151:A 0.000270431
2 *150:X 0.000270431
3 *151:A *148:A3 0
4 *151:A *148:B1 9.66106e-05
5 *151:A *174:A 0.000131772
6 *151:A *175:A 9.50342e-06
7 out[3] *151:A 0
8 *150:A_N *151:A 0.000477677
*RES
1 *150:X *151:A 14.145 
*END

*D_NET *23 0.00437683
*CONN
*I *154:A I *D sky130_fd_sc_hd__nor2_1
*I *155:B I *D sky130_fd_sc_hd__xnor2_1
*I *152:Y O *D sky130_fd_sc_hd__nor2_1
*CAP
1 *154:A 0
2 *155:B 0.000172766
3 *152:Y 0.000920052
4 *23:10 0.00109282
5 *155:B *148:A1 0
6 *155:B *148:A2 0
7 *155:B *154:B 5.53249e-06
8 *155:B *160:A 6.90876e-05
9 *155:B *176:A 4.82863e-05
10 *155:B *177:A 9.52234e-05
11 *23:10 *148:A1 0
12 *23:10 *154:B 0.000384099
13 *23:10 *159:A 0.000174846
14 *23:10 *172:A 0
15 *23:10 *177:A 0.000164294
16 out[2] *23:10 0
17 *150:A_N *23:10 0
18 *152:B *23:10 0.000165698
19 *156:D *23:10 0.000587387
20 *21:19 *23:10 0.000496742
*RES
1 *152:Y *23:10 26.115 
2 *23:10 *155:B 7.23 
3 *23:10 *154:A 3.6 
*END

*D_NET *24 0.00458555
*CONN
*I *154:B I *D sky130_fd_sc_hd__nor2_1
*I *153:X O *D sky130_fd_sc_hd__and2_1
*CAP
1 *154:B 0.00161608
2 *153:X 0.00161608
3 *154:B *148:A1 0.000275164
4 *154:B *148:A2 0.000128648
5 *154:B *158:B 2.10433e-05
6 *154:B *159:A 0.000156032
7 *154:B *173:A 0.00010784
8 *155:B *154:B 5.53249e-06
9 *156:D *154:B 0.000145195
10 *21:19 *154:B 0.000129838
11 *23:10 *154:B 0.000384099
*RES
1 *153:X *154:B 16.2218 
*END

*D_NET *25 0.00381452
*CONN
*I *158:A I *D sky130_fd_sc_hd__and2_1
*I *160:B I *D sky130_fd_sc_hd__xor2_1
*I *156:X O *D sky130_fd_sc_hd__or4_1
*CAP
1 *158:A 0.000372158
2 *160:B 0.000618764
3 *156:X 0
4 *25:6 0.000990922
5 *158:A *148:A2 0
6 *158:A *157:A2 1.7902e-05
7 *158:A *157:B1 0.000690306
8 *158:A *29:39 0.000198939
9 *158:A *37:16 1.34594e-05
10 *158:A *37:33 1.19928e-05
11 *158:A *40:23 0.000620982
12 *160:B *148:A2 0
13 *160:B *155:A 7.89689e-05
14 *160:B *157:A2 5.53249e-06
15 *160:B *41:21 0.000194596
*RES
1 *156:X *25:6 3.6 
2 *25:6 *160:B 14.34 
3 *25:6 *158:A 15 
*END

*D_NET *26 0.00155107
*CONN
*I *158:B I *D sky130_fd_sc_hd__and2_1
*I *157:Y O *D sky130_fd_sc_hd__o31ai_1
*CAP
1 *158:B 0.000547708
2 *157:Y 0.000547708
3 *158:B *157:A1 0
4 *158:B *173:A 9.24127e-05
5 *158:B *179:A 0
6 *158:B *37:33 3.09164e-05
7 *158:B *40:23 0
8 *154:B *158:B 2.10433e-05
9 *157:A3 *158:B 0.000311282
10 *21:19 *158:B 0
*RES
1 *157:Y *158:B 15.975 
*END

*D_NET *27 0.00263722
*CONN
*I *159:A I *D sky130_fd_sc_hd__clkbuf_1
*I *158:X O *D sky130_fd_sc_hd__and2_1
*CAP
1 *159:A 0.000450694
2 *158:X 0.000450694
3 *159:A *148:A1 0.000214424
4 *159:A *173:A 0.000452937
5 *159:A *177:A 1.83847e-05
6 *159:A *37:33 1.94636e-05
7 *154:B *159:A 0.000156032
8 *156:D *159:A 0.000589061
9 *21:19 *159:A 0.000110683
10 *23:10 *159:A 0.000174846
*RES
1 *158:X *159:A 21.3 
*END

*D_NET *28 0.00128653
*CONN
*I *162:B I *D sky130_fd_sc_hd__nor2_1
*I *161:X O *D sky130_fd_sc_hd__and2_1
*CAP
1 *162:B 0.000569711
2 *161:X 0.000569711
3 *162:B *149:D 0
4 *162:B *37:16 8.23457e-05
5 *162:A *162:B 6.47594e-05
*RES
1 *161:X *162:B 13.86 
*END

*D_NET *29 0.00620323
*CONN
*I *163:A I *D sky130_fd_sc_hd__clkbuf_1
*I *161:B I *D sky130_fd_sc_hd__and2_1
*I *146:B I *D sky130_fd_sc_hd__nor2_1
*I *148:A2 I *D sky130_fd_sc_hd__o31a_1
*I *149:B I *D sky130_fd_sc_hd__or4_2
*I *164:X O *D sky130_fd_sc_hd__buf_1
*CAP
1 *163:A 0
2 *161:B 0
3 *146:B 0
4 *148:A2 0.000774962
5 *149:B 1.87149e-05
6 *164:X 0.000439044
7 *29:39 0.00110833
8 *29:31 0.000446431
9 *29:25 0.000303491
10 *29:12 0.000648182
11 *148:A2 *148:A1 0.00097044
12 *148:A2 *155:A 0
13 *148:A2 *40:23 0
14 *29:12 *149:D 7.18832e-05
15 *29:25 *152:A 0
16 *29:31 *157:A1 2.14129e-05
17 *29:31 *157:B1 0.000197415
18 *29:31 *40:23 0.000339205
19 *29:39 *148:A1 5.53249e-06
20 *29:39 *161:A 9.53428e-06
21 *29:39 *37:16 2.75145e-05
22 *29:39 *37:33 0.000445531
23 *29:39 *40:23 0
24 *154:B *148:A2 0.000128648
25 *155:B *148:A2 0
26 *158:A *148:A2 0
27 *158:A *29:39 0.000198939
28 *160:B *148:A2 0
29 *21:8 *29:25 4.80285e-05
*RES
1 *164:X *29:12 12.08 
2 *29:12 *149:B 1.96 
3 *29:12 *29:25 2.895 
4 *29:25 *29:31 8.185 
5 *29:31 *29:39 10.415 
6 *29:39 *148:A2 19.44 
7 *29:39 *146:B 3.6 
8 *29:31 *161:B 1.6 
9 *29:25 *163:A 1.6 
*END

*D_NET *30 0.00269781
*CONN
*I *172:A I *D sky130_fd_sc_hd__buf_2
*I *162:Y O *D sky130_fd_sc_hd__nor2_1
*CAP
1 *172:A 0.00106099
2 *162:Y 0.00106099
3 *172:A *149:C 0.000111925
4 *172:A *173:A 0.000250084
5 *172:A *38:6 0.000196045
6 *157:A3 *172:A 0
7 *166:A *172:A 1.77665e-05
8 *21:19 *172:A 0
9 *23:10 *172:A 0
*RES
1 *162:Y *172:A 23.745 
*END

*D_NET *31 0.00308226
*CONN
*I *173:A I *D sky130_fd_sc_hd__buf_2
*I *147:Y O *D sky130_fd_sc_hd__xnor2_1
*CAP
1 *173:A 0.000662963
2 *147:Y 0.000662963
3 *173:A *148:A3 4.2802e-05
4 *173:A *37:33 0.000263422
5 *154:B *173:A 0.00010784
6 *158:B *173:A 9.24127e-05
7 *159:A *173:A 0.000452937
8 *172:A *173:A 0.000250084
9 *19:6 *173:A 0.000419654
10 *21:19 *173:A 0.000127181
*RES
1 *147:Y *173:A 23.79 
*END

*D_NET *32 0.000628409
*CONN
*I *174:A I *D sky130_fd_sc_hd__buf_2
*I *151:X O *D sky130_fd_sc_hd__clkbuf_1
*CAP
1 *174:A 0.000138961
2 *151:X 0.000138961
3 *174:A *148:A3 9.37731e-05
4 *174:A *148:B1 9.49033e-05
5 *174:A *175:A 3.00381e-05
6 *151:A *174:A 0.000131772
*RES
1 *151:X *174:A 11.325 
*END

*D_NET *33 0.00181934
*CONN
*I *175:A I *D sky130_fd_sc_hd__buf_2
*I *154:Y O *D sky130_fd_sc_hd__nor2_1
*CAP
1 *175:A 0.00038607
2 *154:Y 0.00038607
3 *175:A *148:A1 0.000156622
4 *175:A *148:A3 0.000148778
5 *175:A *160:A 8.09021e-06
6 *175:A *176:A 0.000102184
7 *175:A *178:A 0.000164686
8 *150:A_N *175:A 0.0004273
9 *151:A *175:A 9.50342e-06
10 *174:A *175:A 3.00381e-05
*RES
1 *154:Y *175:A 18.525 
*END

*D_NET *34 0.00169706
*CONN
*I *176:A I *D sky130_fd_sc_hd__buf_2
*I *155:Y O *D sky130_fd_sc_hd__xnor2_1
*CAP
1 *176:A 0.0003388
2 *155:Y 0.0003388
3 *176:A *148:A3 0.000369348
4 *176:A *160:A 0.000159747
5 *176:A *178:A 0.000339893
6 *155:B *176:A 4.82863e-05
7 *175:A *176:A 0.000102184
*RES
1 *155:Y *176:A 16.38 
*END

*D_NET *35 0.00108238
*CONN
*I *177:A I *D sky130_fd_sc_hd__buf_2
*I *159:X O *D sky130_fd_sc_hd__clkbuf_1
*CAP
1 *177:A 0.000221164
2 *159:X 0.000221164
3 *177:A *160:A 0.000291372
4 *177:A *178:A 0
5 *150:A_N *177:A 7.07801e-05
6 *155:B *177:A 9.52234e-05
7 *159:A *177:A 1.83847e-05
8 *23:10 *177:A 0.000164294
*RES
1 *159:X *177:A 13.365 
*END

*D_NET *36 0.000852575
*CONN
*I *178:A I *D sky130_fd_sc_hd__clkbuf_4
*I *160:X O *D sky130_fd_sc_hd__xor2_1
*CAP
1 *178:A 0.000173998
2 *160:X 0.000173998
3 *178:A *160:A 0
4 *175:A *178:A 0.000164686
5 *176:A *178:A 0.000339893
6 *177:A *178:A 0
*RES
1 *160:X *178:A 11.64 
*END

*D_NET *37 0.00610124
*CONN
*I *149:A I *D sky130_fd_sc_hd__or4_2
*I *146:A I *D sky130_fd_sc_hd__nor2_1
*I *148:A1 I *D sky130_fd_sc_hd__o31a_1
*I *161:A I *D sky130_fd_sc_hd__and2_1
*I *165:X O *D sky130_fd_sc_hd__buf_1
*CAP
1 *149:A 0
2 *146:A 0
3 *148:A1 0.000450434
4 *161:A 1.85694e-05
5 *165:X 0.00044383
6 *37:33 0.0007866
7 *37:16 0.000619945
8 *37:10 0.000709039
9 *37:10 *157:A1 3.15579e-05
10 *37:10 *157:A2 0.000118513
11 *37:16 *149:C 5.88634e-05
12 *37:16 *149:D 0
13 *37:16 *157:A2 0.000337531
14 *37:16 *38:12 0
15 *37:33 *40:23 0
16 *148:A2 *148:A1 0.00097044
17 *154:B *148:A1 0.000275164
18 *155:B *148:A1 0
19 *158:A *37:16 1.34594e-05
20 *158:A *37:33 1.19928e-05
21 *158:B *37:33 3.09164e-05
22 *159:A *148:A1 0.000214424
23 *159:A *37:33 1.94636e-05
24 *162:B *37:16 8.23457e-05
25 *173:A *37:33 0.000263422
26 *175:A *148:A1 0.000156622
27 *23:10 *148:A1 0
28 *29:39 *148:A1 5.53249e-06
29 *29:39 *161:A 9.53428e-06
30 *29:39 *37:16 2.75145e-05
31 *29:39 *37:33 0.000445531
*RES
1 *165:X *37:10 9.225 
2 *37:10 *37:16 7.76 
3 *37:16 *161:A 1.96 
4 *37:16 *37:33 11.12 
5 *37:33 *148:A1 18.51 
6 *37:33 *146:A 3.6 
7 *37:10 *149:A 3.6 
*END

*D_NET *38 0.00581447
*CONN
*I *149:C I *D sky130_fd_sc_hd__or4_2
*I *147:A I *D sky130_fd_sc_hd__xnor2_1
*I *148:A3 I *D sky130_fd_sc_hd__o31a_1
*I *166:X O *D sky130_fd_sc_hd__buf_1
*CAP
1 *149:C 0.000167745
2 *147:A 0
3 *148:A3 0.000975702
4 *166:X 0.000135196
5 *38:12 0.00141842
6 *38:6 0.000745659
7 *148:A3 *148:B1 0.000415302
8 *149:C *149:D 0
9 *38:12 *149:D 0.000476697
10 *38:12 *157:A2 0
11 out[4] *148:A3 2.05641e-05
12 out[5] *148:A3 0.000108647
13 *151:A *148:A3 0
14 *162:A *38:12 0
15 *172:A *149:C 0.000111925
16 *172:A *38:6 0.000196045
17 *173:A *148:A3 4.2802e-05
18 *174:A *148:A3 9.37731e-05
19 *175:A *148:A3 0.000148778
20 *176:A *148:A3 0.000369348
21 *19:6 *148:A3 0.000329007
22 *37:16 *149:C 5.88634e-05
23 *37:16 *38:12 0
*RES
1 *166:X *38:6 3.43 
2 *38:6 *38:12 13.03 
3 *38:12 *148:A3 26.21 
4 *38:12 *147:A 1.6 
5 *38:6 *149:C 8.12 
*END

*D_NET *39 0.00600377
*CONN
*I *148:B1 I *D sky130_fd_sc_hd__o31a_1
*I *149:D I *D sky130_fd_sc_hd__or4_2
*I *167:X O *D sky130_fd_sc_hd__buf_1
*CAP
1 *148:B1 0.00150726
2 *149:D 0.000378302
3 *167:X 0.000298185
4 *39:6 0.00218375
5 out[3] *148:B1 4.18203e-05
6 out[4] *148:B1 1.88656e-05
7 out[5] *148:B1 0.000106344
8 *148:A3 *148:B1 0.000415302
9 *149:C *149:D 0
10 *150:A_N *148:B1 0
11 *150:B *148:B1 0.000313852
12 *151:A *148:B1 9.66106e-05
13 *162:A *149:D 0
14 *162:B *149:D 0
15 *174:A *148:B1 9.49033e-05
16 *29:12 *149:D 7.18832e-05
17 *37:16 *149:D 0
18 *38:12 *149:D 0.000476697
*RES
1 *167:X *39:6 4.81 
2 *39:6 *149:D 13.73 
3 *39:6 *148:B1 32.39 
*END

*D_NET *40 0.00586841
*CONN
*I *157:A1 I *D sky130_fd_sc_hd__o31ai_1
*I *152:A I *D sky130_fd_sc_hd__nor2_1
*I *153:A I *D sky130_fd_sc_hd__and2_1
*I *156:A I *D sky130_fd_sc_hd__or4_1
*I *168:X O *D sky130_fd_sc_hd__buf_1
*CAP
1 *157:A1 0.000233753
2 *152:A 0.000377911
3 *153:A 0
4 *156:A 0
5 *168:X 0.000551124
6 *40:27 0.000423142
7 *40:23 0.00090574
8 *40:8 0.00117788
9 *157:A1 *157:A2 6.73197e-05
10 *157:A1 *157:B1 0.000107659
11 *157:A1 *179:A 0.000115464
12 *40:8 *157:B1 1.19928e-05
13 *40:23 *157:B1 6.27569e-05
14 *148:A2 *40:23 0
15 *152:B *152:A 0.000316421
16 *156:D *40:8 2.58493e-05
17 *156:D *40:23 4.21973e-05
18 *157:A3 *157:A1 6.6196e-05
19 *158:A *40:23 0.000620982
20 *158:B *157:A1 0
21 *158:B *40:23 0
22 *21:8 *152:A 4.60084e-05
23 *21:8 *40:27 0.0001249
24 *21:15 *152:A 0.000198939
25 *29:25 *152:A 0
26 *29:31 *157:A1 2.14129e-05
27 *29:31 *40:23 0.000339205
28 *29:39 *40:23 0
29 *37:10 *157:A1 3.15579e-05
30 *37:33 *40:23 0
*RES
1 *168:X *40:8 7.84 
2 *40:8 *156:A 1.6 
3 *40:8 *40:23 15.785 
4 *40:23 *40:27 3.14 
5 *40:27 *153:A 1.6 
6 *40:27 *152:A 8.545 
7 *40:23 *157:A1 8.88 
*END

*D_NET *41 0.0061777
*CONN
*I *157:A2 I *D sky130_fd_sc_hd__o31ai_1
*I *156:B I *D sky130_fd_sc_hd__or4_1
*I *155:A I *D sky130_fd_sc_hd__xnor2_1
*I *169:X O *D sky130_fd_sc_hd__buf_1
*CAP
1 *157:A2 0.000650334
2 *156:B 0
3 *155:A 0.000391076
4 *169:X 0.000425124
5 *41:21 0.000734676
6 *41:8 0.000900542
7 *155:A *160:A 0.000164033
8 *155:A *42:12 0.000474336
9 *157:A2 *157:B1 0.00123901
10 *157:A2 *42:12 4.21314e-05
11 *41:21 *42:12 0.000336077
12 *148:A2 *155:A 0
13 *157:A1 *157:A2 6.73197e-05
14 *158:A *157:A2 1.7902e-05
15 *160:B *155:A 7.89689e-05
16 *160:B *157:A2 5.53249e-06
17 *160:B *41:21 0.000194596
18 *37:10 *157:A2 0.000118513
19 *37:16 *157:A2 0.000337531
20 *38:12 *157:A2 0
*RES
1 *169:X *41:8 9.225 
2 *41:8 *155:A 13.125 
3 *41:8 *41:21 3.93 
4 *41:21 *156:B 3.6 
5 *41:21 *157:A2 19.6275 
*END

*D_NET *42 0.00587296
*CONN
*I *157:B1 I *D sky130_fd_sc_hd__o31ai_1
*I *156:C I *D sky130_fd_sc_hd__or4_1
*I *170:X O *D sky130_fd_sc_hd__buf_1
*CAP
1 *157:B1 0.000402697
2 *156:C 0
3 *170:X 0.000655784
4 *42:12 0.00105848
5 *42:12 *160:A 0.000461995
6 *155:A *42:12 0.000474336
7 *156:D *157:B1 8.40269e-05
8 *157:A1 *157:B1 0.000107659
9 *157:A2 *157:B1 0.00123901
10 *157:A2 *42:12 4.21314e-05
11 *157:A3 *157:B1 4.82919e-05
12 *158:A *157:B1 0.000690306
13 *29:31 *157:B1 0.000197415
14 *40:8 *157:B1 1.19928e-05
15 *40:23 *157:B1 6.27569e-05
16 *41:21 *42:12 0.000336077
*RES
1 *170:X *42:12 20.675 
2 *42:12 *156:C 1.6 
3 *42:12 *157:B1 21.23 
*END

*D_NET *43 0.00309947
*CONN
*I *160:A I *D sky130_fd_sc_hd__xor2_1
*I *171:X O *D sky130_fd_sc_hd__clkbuf_1
*CAP
1 *160:A 0.000912477
2 *171:X 0.000912477
3 *150:A_N *160:A 0.000120186
4 *155:A *160:A 0.000164033
5 *155:B *160:A 6.90876e-05
6 *175:A *160:A 8.09021e-06
7 *176:A *160:A 0.000159747
8 *177:A *160:A 0.000291372
9 *178:A *160:A 0
10 *42:12 *160:A 0.000461995
*RES
1 *171:X *160:A 21.42 
*END

*D_NET *44 0.00109073
*CONN
*I *179:A I *D sky130_fd_sc_hd__buf_2
*I *163:X O *D sky130_fd_sc_hd__clkbuf_1
*CAP
1 *179:A 0.00031111
2 *163:X 0.00031111
3 *157:A1 *179:A 0.000115464
4 *157:A3 *179:A 0.000353049
5 *158:B *179:A 0
*RES
1 *163:X *179:A 13.515 
*END
