*SPEF "ieee 1481-1999"
*DESIGN "labwork1_src"
*DATE "16:34:25 Friday April 25, 2025"
*VENDOR "The OpenROAD Project"
*PROGRAM "OpenROAD"
*VERSION "b16bda7e82721d10566ff7e2b68f1ff0be9f9e38"
*DESIGN_FLOW "NAME_SCOPE LOCAL" "PIN_CAP NONE"
*DIVIDER /
*DELIMITER :
*BUS_DELIMITER []
*T_UNIT 1 NS
*C_UNIT 1 PF
*R_UNIT 1 OHM
*L_UNIT 1 HENRY

*NAME_MAP
*3 in[0]
*4 in[1]
*5 in[2]
*6 in[3]
*7 in[4]
*8 in[5]
*9 in[6]
*10 in[7]
*11 out[0]
*12 out[1]
*13 out[2]
*14 out[3]
*15 out[4]
*16 out[5]
*17 out[6]
*18 out[7]
*19 _00_
*20 _01_
*21 _02_
*22 _03_
*23 _04_
*24 _05_
*25 _06_
*26 _07_
*27 _08_
*28 _09_
*29 net1
*30 net10
*31 net11
*32 net12
*33 net13
*34 net14
*35 net15
*36 net16
*37 net2
*38 net3
*39 net4
*40 net5
*41 net6
*42 net7
*43 net8
*44 net9
*45 FILLER_0_0_21
*46 FILLER_0_0_27
*47 FILLER_0_0_36
*48 FILLER_0_0_9
*49 FILLER_0_10_11
*50 FILLER_0_10_23
*51 FILLER_0_10_27
*52 FILLER_0_10_29
*53 FILLER_0_10_3
*54 FILLER_0_10_41
*55 FILLER_0_11_15
*56 FILLER_0_11_27
*57 FILLER_0_11_3
*58 FILLER_0_11_33
*59 FILLER_0_11_41
*60 FILLER_0_11_46
*61 FILLER_0_12_17
*62 FILLER_0_12_24
*63 FILLER_0_12_29
*64 FILLER_0_12_37
*65 FILLER_0_12_9
*66 FILLER_0_1_15
*67 FILLER_0_1_27
*68 FILLER_0_1_3
*69 FILLER_0_1_33
*70 FILLER_0_1_37
*71 FILLER_0_2_15
*72 FILLER_0_2_27
*73 FILLER_0_2_29
*74 FILLER_0_2_3
*75 FILLER_0_2_44
*76 FILLER_0_3_18
*77 FILLER_0_3_30
*78 FILLER_0_3_38
*79 FILLER_0_3_42
*80 FILLER_0_3_6
*81 FILLER_0_4_15
*82 FILLER_0_4_27
*83 FILLER_0_4_29
*84 FILLER_0_4_3
*85 FILLER_0_4_41
*86 FILLER_0_4_47
*87 FILLER_0_5_24
*88 FILLER_0_5_36
*89 FILLER_0_5_40
*90 FILLER_0_5_6
*91 FILLER_0_6_11
*92 FILLER_0_6_20
*93 FILLER_0_6_3
*94 FILLER_0_6_32
*95 FILLER_0_6_44
*96 FILLER_0_7_15
*97 FILLER_0_7_27
*98 FILLER_0_7_3
*99 FILLER_0_7_39
*100 FILLER_0_7_43
*101 FILLER_0_8_18
*102 FILLER_0_8_26
*103 FILLER_0_8_29
*104 FILLER_0_8_37
*105 FILLER_0_8_46
*106 FILLER_0_8_6
*107 FILLER_0_9_15
*108 FILLER_0_9_21
*109 FILLER_0_9_27
*110 FILLER_0_9_3
*111 FILLER_0_9_35
*112 FILLER_0_9_47
*113 PHY_EDGE_ROW_0_Left_13
*114 PHY_EDGE_ROW_0_Right_0
*115 PHY_EDGE_ROW_10_Left_23
*116 PHY_EDGE_ROW_10_Right_10
*117 PHY_EDGE_ROW_11_Left_24
*118 PHY_EDGE_ROW_11_Right_11
*119 PHY_EDGE_ROW_12_Left_25
*120 PHY_EDGE_ROW_12_Right_12
*121 PHY_EDGE_ROW_1_Left_14
*122 PHY_EDGE_ROW_1_Right_1
*123 PHY_EDGE_ROW_2_Left_15
*124 PHY_EDGE_ROW_2_Right_2
*125 PHY_EDGE_ROW_3_Left_16
*126 PHY_EDGE_ROW_3_Right_3
*127 PHY_EDGE_ROW_4_Left_17
*128 PHY_EDGE_ROW_4_Right_4
*129 PHY_EDGE_ROW_5_Left_18
*130 PHY_EDGE_ROW_5_Right_5
*131 PHY_EDGE_ROW_6_Left_19
*132 PHY_EDGE_ROW_6_Right_6
*133 PHY_EDGE_ROW_7_Left_20
*134 PHY_EDGE_ROW_7_Right_7
*135 PHY_EDGE_ROW_8_Left_21
*136 PHY_EDGE_ROW_8_Right_8
*137 PHY_EDGE_ROW_9_Left_22
*138 PHY_EDGE_ROW_9_Right_9
*139 TAP_TAPCELL_ROW_0_26
*140 TAP_TAPCELL_ROW_10_31
*141 TAP_TAPCELL_ROW_12_32
*142 TAP_TAPCELL_ROW_2_27
*143 TAP_TAPCELL_ROW_4_28
*144 TAP_TAPCELL_ROW_6_29
*145 TAP_TAPCELL_ROW_8_30
*146 _10_
*147 _11_
*148 _12_
*149 _13_
*150 _14_
*151 _15_
*152 _16_
*153 _17_
*154 _18_
*155 _19_
*156 _20_
*157 _21_
*158 _22_
*159 _23_
*160 _24_
*161 _25_
*162 _26_
*163 _27_
*164 input1
*165 input2
*166 input3
*167 input4
*168 input5
*169 input6
*170 input7
*171 input8
*172 output10
*173 output11
*174 output12
*175 output13
*176 output14
*177 output15
*178 output16
*179 output9

*PORTS
in[0] I
in[1] I
in[2] I
in[3] I
in[4] I
in[5] I
in[6] I
in[7] I
out[0] O
out[1] O
out[2] O
out[3] O
out[4] O
out[5] O
out[6] O
out[7] O

*D_NET *3 0.00114897
*CONN
*P in[0] I
*I *164:A I *D sky130_fd_sc_hd__buf_1
*CAP
1 in[0] 0.000574485
2 *164:A 0
3 *3:11 0.000574485
4 *3:11 *4:19 0
*RES
1 in[0] *3:11 31.4739 
2 *3:11 *164:A 23 
*END

*D_NET *4 0.000854777
*CONN
*P in[1] I
*I *165:A I *D sky130_fd_sc_hd__buf_1
*CAP
1 in[1] 0.000427388
2 *165:A 0
3 *4:19 0.000427388
4 *4:19 *5:15 0
5 *3:11 *4:19 0
*RES
1 in[1] *4:19 28.7327 
2 *4:19 *165:A 23 
*END

*D_NET *5 0.000960994
*CONN
*P in[2] I
*I *166:A I *D sky130_fd_sc_hd__buf_1
*CAP
1 in[2] 0.000471327
2 *166:A 0
3 *5:15 0.000471327
4 *5:15 *6:17 0
5 *5:15 *19:14 0
6 *5:15 *30:6 1.83408e-05
7 *4:19 *5:15 0
*RES
1 in[2] *5:15 29.4082 
2 *5:15 *166:A 23 
*END

*D_NET *6 0.000742726
*CONN
*P in[3] I
*I *167:A I *D sky130_fd_sc_hd__buf_1
*CAP
1 in[3] 0.000371363
2 *167:A 0
3 *6:17 0.000371363
4 *6:17 *7:17 0
5 *6:17 *19:14 0
6 *5:15 *6:17 0
*RES
1 in[3] *6:17 28.2148 
2 *6:17 *167:A 23 
*END

*D_NET *7 0.000650175
*CONN
*P in[4] I
*I *168:A I *D sky130_fd_sc_hd__buf_1
*CAP
1 in[4] 0.000325087
2 *168:A 0
3 *7:17 0.000325087
4 *7:17 *8:17 0
5 *6:17 *7:17 0
*RES
1 in[4] *7:17 27.1584 
2 *7:17 *168:A 23 
*END

*D_NET *8 0.000761607
*CONN
*P in[5] I
*I *169:A I *D sky130_fd_sc_hd__buf_1
*CAP
1 in[5] 0.000380803
2 *169:A 0
3 *8:17 0.000380803
4 *8:17 *170:A 0
5 *7:17 *8:17 0
*RES
1 in[5] *8:17 28.567 
2 *8:17 *169:A 23 
*END

*D_NET *9 0.000603153
*CONN
*P in[6] I
*I *170:A I *D sky130_fd_sc_hd__buf_1
*CAP
1 in[6] 0.000301577
2 *170:A 0.000301577
3 *170:A *10:11 0
4 *8:17 *170:A 0
*RES
1 in[6] *170:A 49.8062 
*END

*D_NET *10 0.00130197
*CONN
*P in[7] I
*I *171:A I *D sky130_fd_sc_hd__clkbuf_1
*CAP
1 in[7] 0.000650983
2 *171:A 0
3 *10:11 0.000650983
4 *170:A *10:11 0
*RES
1 in[7] *10:11 32.0837 
2 *10:11 *171:A 23 
*END

*D_NET *11 0.00123536
*CONN
*P out[0] O
*I *179:X O *D sky130_fd_sc_hd__buf_2
*CAP
1 out[0] 0.00029892
2 *179:X 0.000318757
3 *11:8 0.000617678
4 out[0] out[1] 0
*RES
1 *179:X *11:8 44.6596 
2 *11:8 out[0] 9.10133 
*END

*D_NET *12 0.00046494
*CONN
*P out[1] O
*I *172:X O *D sky130_fd_sc_hd__buf_2
*CAP
1 out[1] 0.00023247
2 *172:X 0.00023247
3 out[1] out[2] 0
4 out[0] out[1] 0
*RES
1 *172:X out[1] 47.0789 
*END

*D_NET *13 0.00047815
*CONN
*P out[2] O
*I *173:X O *D sky130_fd_sc_hd__buf_2
*CAP
1 out[2] 0.000239075
2 *173:X 0.000239075
3 out[2] out[3] 0
4 out[2] *23:10 0
5 out[1] out[2] 0
*RES
1 *173:X out[2] 47.0789 
*END

*D_NET *14 0.000554994
*CONN
*P out[3] O
*I *174:X O *D sky130_fd_sc_hd__buf_2
*CAP
1 out[3] 0.000252244
2 *174:X 0.000252244
3 out[3] out[4] 0
4 out[3] *22:10 0
5 out[3] *39:33 5.05059e-05
6 out[2] out[3] 0
*RES
1 *174:X out[3] 47.4311 
*END

*D_NET *15 0.000513997
*CONN
*P out[4] O
*I *175:X O *D sky130_fd_sc_hd__buf_2
*CAP
1 out[4] 0.000233323
2 *175:X 0.000233323
3 out[4] out[5] 0
4 out[4] *38:20 2.47015e-05
5 out[4] *39:33 2.26497e-05
6 out[3] out[4] 0
*RES
1 *175:X out[4] 47.0789 
*END

*D_NET *16 0.000782867
*CONN
*P out[5] O
*I *176:X O *D sky130_fd_sc_hd__buf_2
*CAP
1 out[5] 0.000262538
2 *176:X 0.000262538
3 out[5] out[6] 0
4 out[5] *38:20 0.000130212
5 out[5] *39:33 0.00012758
6 out[4] out[5] 0
*RES
1 *176:X out[5] 48.4875 
*END

*D_NET *17 0.000897506
*CONN
*P out[6] O
*I *177:X O *D sky130_fd_sc_hd__buf_2
*CAP
1 out[6] 0.000448753
2 *177:X 0.000448753
3 out[6] out[7] 0
4 out[5] out[6] 0
*RES
1 *177:X out[6] 47.5941 
*END

*D_NET *18 0.00110166
*CONN
*P out[7] O
*I *178:X O *D sky130_fd_sc_hd__clkbuf_4
*CAP
1 out[7] 0.000175108
2 *178:X 0.000375724
3 *18:8 0.000550832
4 out[6] out[7] 0
*RES
1 *178:X *18:8 45.7161 
2 *18:8 out[7] 8.672 
*END

*D_NET *19 0.00301021
*CONN
*I *147:B I *D sky130_fd_sc_hd__xnor2_1
*I *162:A I *D sky130_fd_sc_hd__nor2_1
*I *146:Y O *D sky130_fd_sc_hd__nor2_1
*CAP
1 *147:B 0
2 *162:A 0
3 *146:Y 0.000248001
4 *19:14 0.000804767
5 *19:6 0.00105277
6 *19:6 *31:8 0.000479045
7 *19:6 *38:20 0.000356276
8 *19:14 *28:10 6.93553e-05
9 *19:14 *38:12 0
10 *19:14 *39:14 0
11 *5:15 *19:14 0
12 *6:17 *19:14 0
*RES
1 *146:Y *19:6 30.7679 
2 *19:6 *19:14 45.4943 
3 *19:14 *162:A 23 
4 *19:6 *147:B 23 
*END

*D_NET *20 0.00264851
*CONN
*I *150:A_N I *D sky130_fd_sc_hd__and2b_1
*I *148:X O *D sky130_fd_sc_hd__o31a_1
*CAP
1 *150:A_N 0
2 *148:X 3.83684e-05
3 *20:12 0.000656825
4 *20:8 0.000695193
5 *20:8 *33:8 5.67058e-05
6 *20:12 *22:10 0.000573061
7 *20:12 *23:10 0
8 *20:12 *33:14 0.000408695
9 *20:12 *35:10 7.55491e-05
10 *20:12 *39:33 0
11 *20:12 *43:12 0.00014411
*RES
1 *148:X *20:8 38.6214 
2 *20:8 *20:12 33.4564 
3 *20:12 *150:A_N 23 
*END

*D_NET *21 0.00878814
*CONN
*I *152:B I *D sky130_fd_sc_hd__nor2_1
*I *157:A3 I *D sky130_fd_sc_hd__o31ai_1
*I *150:B I *D sky130_fd_sc_hd__and2b_1
*I *156:D I *D sky130_fd_sc_hd__or4_1
*I *153:B I *D sky130_fd_sc_hd__and2_1
*I *149:X O *D sky130_fd_sc_hd__or4_2
*CAP
1 *152:B 7.25201e-05
2 *157:A3 0.000395909
3 *150:B 0.00018579
4 *156:D 0
5 *153:B 0
6 *149:X 0.00023914
7 *21:27 0.000747368
8 *21:19 0.00118707
9 *21:17 0.000649824
10 *21:15 0.000168599
11 *21:8 0.000335219
12 *150:B *39:27 0.000356724
13 *152:B *152:A 0.000359332
14 *152:B *23:8 0.000177909
15 *157:A3 *157:A1 7.01207e-05
16 *157:A3 *157:B1 5.50106e-05
17 *157:A3 *179:A 0.000401106
18 *157:A3 *26:10 0.000354116
19 *157:A3 *30:12 0
20 *21:8 *152:A 5.01897e-05
21 *21:8 *29:25 5.12254e-05
22 *21:8 *40:27 0.00014196
23 *21:15 *152:A 0.0002263
24 *21:19 *23:10 0.000595483
25 *21:19 *24:12 6.10551e-06
26 *21:19 *26:10 0
27 *21:19 *27:12 0.000132665
28 *21:19 *30:12 0
29 *21:19 *31:14 0.000138082
30 *21:27 *23:10 0.000704424
31 *21:27 *24:26 0.000114414
32 *21:27 *27:12 0.000706665
33 *21:27 *40:8 2.39411e-05
34 *21:27 *40:23 4.5051e-05
35 *21:27 *42:23 9.5877e-05
*RES
1 *149:X *21:8 27.8057 
2 *21:8 *153:B 23 
3 *21:8 *21:15 2.52714 
4 *21:15 *21:17 15 
5 *21:17 *21:19 8.59643 
6 *21:19 *21:27 33.3943 
7 *21:27 *156:D 23 
8 *21:19 *150:B 42.5986 
9 *21:17 *157:A3 47.57 
10 *21:15 *152:B 26.9564 
*END

*D_NET *22 0.0015171
*CONN
*I *151:A I *D sky130_fd_sc_hd__clkbuf_1
*I *150:X O *D sky130_fd_sc_hd__and2b_1
*CAP
1 *151:A 0
2 *150:X 0.000349483
3 *22:10 0.000349483
4 *22:10 *32:10 0.000129984
5 *22:10 *33:14 1.14452e-05
6 *22:10 *38:20 0
7 *22:10 *39:27 0.000103647
8 *22:10 *39:33 0
9 out[3] *22:10 0
10 *20:12 *22:10 0.000573061
*RES
1 *150:X *22:10 47.5907 
2 *22:10 *151:A 38 
*END

*D_NET *23 0.00523827
*CONN
*I *154:A I *D sky130_fd_sc_hd__nor2_1
*I *155:B I *D sky130_fd_sc_hd__xnor2_1
*I *152:Y O *D sky130_fd_sc_hd__nor2_1
*CAP
1 *154:A 0
2 *155:B 0.000229445
3 *152:Y 0.000156068
4 *23:10 0.00124788
5 *23:8 0.00117451
6 *155:B *24:26 6.07611e-06
7 *155:B *29:45 0
8 *155:B *34:8 5.50049e-05
9 *155:B *35:10 0.000100625
10 *155:B *37:41 0
11 *155:B *43:6 7.42621e-05
12 *23:10 *24:26 0.000350602
13 *23:10 *27:12 0.000189081
14 *23:10 *30:12 0
15 *23:10 *35:10 0.000176903
16 *23:10 *37:41 0
17 out[2] *23:10 0
18 *152:B *23:8 0.000177909
19 *20:12 *23:10 0
20 *21:19 *23:10 0.000595483
21 *21:27 *23:10 0.000704424
*RES
1 *152:Y *23:8 41.48 
2 *23:8 *23:10 27.6121 
3 *23:10 *155:B 43.0129 
4 *23:10 *154:A 38 
*END

*D_NET *24 0.00476424
*CONN
*I *154:B I *D sky130_fd_sc_hd__nor2_1
*I *153:X O *D sky130_fd_sc_hd__and2_1
*CAP
1 *154:B 0
2 *153:X 7.10625e-05
3 *24:26 0.00180761
4 *24:12 0.00187867
5 *24:12 *26:10 2.5343e-05
6 *24:26 *27:12 0.000133175
7 *24:26 *31:14 0.000118028
8 *24:26 *37:41 0.000253151
9 *155:B *24:26 6.07611e-06
10 *21:19 *24:12 6.10551e-06
11 *21:27 *24:26 0.000114414
12 *23:10 *24:26 0.000350602
*RES
1 *153:X *24:12 46.42 
2 *24:12 *24:26 48.5537 
3 *24:26 *154:B 23 
*END

*D_NET *25 0.00469303
*CONN
*I *158:A I *D sky130_fd_sc_hd__and2_1
*I *160:B I *D sky130_fd_sc_hd__xor2_1
*I *156:X O *D sky130_fd_sc_hd__or4_1
*CAP
1 *158:A 0
2 *160:B 0
3 *156:X 0
4 *25:25 0.000513523
5 *25:12 0.000764578
6 *25:6 0.0012781
7 *25:12 *29:45 0
8 *25:12 *41:14 8.51329e-05
9 *25:12 *41:21 0.000210945
10 *25:12 *41:34 6.07611e-06
11 *25:25 *29:39 0.0002263
12 *25:25 *29:45 0
13 *25:25 *37:16 1.41077e-05
14 *25:25 *37:33 1.21972e-05
15 *25:25 *40:23 0.000736473
16 *25:25 *41:34 1.88972e-05
17 *25:25 *42:23 0.000826695
*RES
1 *156:X *25:6 38 
2 *25:6 *25:12 29.8314 
3 *25:12 *160:B 23 
4 *25:6 *25:25 30.7429 
5 *25:25 *158:A 23 
*END

*D_NET *26 0.00188685
*CONN
*I *158:B I *D sky130_fd_sc_hd__and2_1
*I *157:Y O *D sky130_fd_sc_hd__o31ai_1
*CAP
1 *158:B 3.76994e-05
2 *157:Y 0.000647541
3 *26:10 0.00068524
4 *26:10 *157:A1 0
5 *26:10 *31:14 9.98995e-05
6 *26:10 *37:33 3.70094e-05
7 *26:10 *40:23 0
8 *26:10 *44:8 0
9 *157:A3 *26:10 0.000354116
10 *21:19 *26:10 0
11 *24:12 *26:10 2.5343e-05
*RES
1 *157:Y *26:10 49.4964 
2 *26:10 *158:B 38.6214 
*END

*D_NET *27 0.00318542
*CONN
*I *159:A I *D sky130_fd_sc_hd__clkbuf_1
*I *158:X O *D sky130_fd_sc_hd__and2_1
*CAP
1 *159:A 0
2 *158:X 0
3 *27:12 0.000615137
4 *27:6 0.000615137
5 *27:12 *31:14 0.000543043
6 *27:12 *35:10 1.94812e-05
7 *27:12 *37:33 1.94418e-05
8 *27:12 *37:41 0.00021159
9 *21:19 *27:12 0.000132665
10 *21:27 *27:12 0.000706665
11 *23:10 *27:12 0.000189081
12 *24:26 *27:12 0.000133175
*RES
1 *158:X *27:6 38 
2 *27:6 *27:12 34.4714 
3 *27:12 *159:A 23 
*END

*D_NET *28 0.00157287
*CONN
*I *162:B I *D sky130_fd_sc_hd__nor2_1
*I *161:X O *D sky130_fd_sc_hd__and2_1
*CAP
1 *162:B 0
2 *161:X 0.000704673
3 *28:10 0.000704673
4 *28:10 *37:16 9.41704e-05
5 *28:10 *39:14 0
6 *19:14 *28:10 6.93553e-05
*RES
1 *161:X *28:10 47.1971 
2 *28:10 *162:B 38 
*END

*D_NET *29 0.00735639
*CONN
*I *163:A I *D sky130_fd_sc_hd__clkbuf_1
*I *161:B I *D sky130_fd_sc_hd__and2_1
*I *146:B I *D sky130_fd_sc_hd__nor2_1
*I *148:A2 I *D sky130_fd_sc_hd__o31a_1
*I *149:B I *D sky130_fd_sc_hd__or4_2
*I *164:X O *D sky130_fd_sc_hd__buf_1
*CAP
1 *163:A 0
2 *161:B 0
3 *146:B 0
4 *148:A2 0
5 *149:B 2.06917e-05
6 *164:X 0.000141624
7 *29:45 0.000969175
8 *29:39 0.00140862
9 *29:31 0.000613462
10 *29:25 0.000419611
11 *29:12 0.000644224
12 *29:8 0.00051956
13 *29:8 *39:14 0
14 *29:12 *39:14 7.87877e-05
15 *29:25 *152:A 0
16 *29:31 *157:A1 2.55642e-05
17 *29:31 *40:23 0.000406297
18 *29:31 *42:23 0.000211681
19 *29:39 *161:A 1.14154e-05
20 *29:39 *37:16 2.93747e-05
21 *29:39 *37:33 0.00049648
22 *29:39 *37:41 6.07611e-06
23 *29:39 *40:23 0
24 *29:45 *37:41 0.00107622
25 *29:45 *40:23 0
26 *29:45 *41:14 0
27 *155:B *29:45 0
28 *21:8 *29:25 5.12254e-05
29 *25:12 *29:45 0
30 *25:25 *29:39 0.0002263
31 *25:25 *29:45 0
*RES
1 *164:X *29:8 40.61 
2 *29:8 *29:12 21.3386 
3 *29:12 *149:B 23.4971 
4 *29:12 *29:25 3.99786 
5 *29:25 *29:31 35.7793 
6 *29:31 *29:39 26.6207 
7 *29:39 *29:45 36.8743 
8 *29:45 *148:A2 23 
9 *29:39 *146:B 38 
10 *29:31 *161:B 23 
11 *29:25 *163:A 23 
*END

*D_NET *30 0.0032764
*CONN
*I *172:A I *D sky130_fd_sc_hd__buf_2
*I *162:Y O *D sky130_fd_sc_hd__nor2_1
*CAP
1 *172:A 0
2 *162:Y 0.00101678
3 *30:12 0.000297319
4 *30:6 0.0013141
5 *30:6 *31:14 0.000268001
6 *30:6 *38:6 0.000229793
7 *30:6 *38:40 0.000132064
8 *157:A3 *30:12 0
9 *5:15 *30:6 1.83408e-05
10 *21:19 *30:12 0
11 *23:10 *30:12 0
*RES
1 *162:Y *30:6 40.7729 
2 *30:6 *30:12 35.075 
3 *30:12 *172:A 23 
*END

*D_NET *31 0.0037154
*CONN
*I *173:A I *D sky130_fd_sc_hd__buf_2
*I *147:Y O *D sky130_fd_sc_hd__xnor2_1
*CAP
1 *173:A 0
2 *147:Y 0.000360846
3 *31:14 0.000512
4 *31:8 0.000872846
5 *31:8 *38:20 4.46315e-05
6 *31:14 *37:33 0.000278983
7 *19:6 *31:8 0.000479045
8 *21:19 *31:14 0.000138082
9 *24:26 *31:14 0.000118028
10 *26:10 *31:14 9.98995e-05
11 *27:12 *31:14 0.000543043
12 *30:6 *31:14 0.000268001
*RES
1 *147:Y *31:8 44.815 
2 *31:8 *31:14 31.095 
3 *31:14 *173:A 23 
*END

*D_NET *32 0.000753099
*CONN
*I *174:A I *D sky130_fd_sc_hd__buf_2
*I *151:X O *D sky130_fd_sc_hd__clkbuf_1
*CAP
1 *174:A 0
2 *151:X 0.000192323
3 *32:10 0.000192323
4 *32:10 *33:14 3.22879e-05
5 *32:10 *38:20 0.000111852
6 *32:10 *39:33 9.43301e-05
7 *22:10 *32:10 0.000129984
*RES
1 *151:X *32:10 43.6964 
2 *32:10 *174:A 38 
*END

*D_NET *33 0.00218886
*CONN
*I *175:A I *D sky130_fd_sc_hd__buf_2
*I *154:Y O *D sky130_fd_sc_hd__nor2_1
*CAP
1 *175:A 0
2 *154:Y 0.000176988
3 *33:14 0.000347379
4 *33:8 0.000524368
5 *33:8 *37:41 0.000167431
6 *33:14 *176:A 0.000111045
7 *33:14 *36:8 0.000197479
8 *33:14 *38:20 0.000147271
9 *33:14 *43:12 7.76364e-06
10 *20:8 *33:8 5.67058e-05
11 *20:12 *33:14 0.000408695
12 *22:10 *33:14 1.14452e-05
13 *32:10 *33:14 3.22879e-05
*RES
1 *154:Y *33:8 41.48 
2 *33:8 *33:14 27.1593 
3 *33:14 *175:A 23 
*END

*D_NET *34 0.00206438
*CONN
*I *176:A I *D sky130_fd_sc_hd__buf_2
*I *155:Y O *D sky130_fd_sc_hd__xnor2_1
*CAP
1 *176:A 0.000218343
2 *155:Y 0.000214479
3 *34:8 0.000432822
4 *176:A *36:8 0.000407218
5 *176:A *38:20 0.000443548
6 *34:8 *43:6 0.000181925
7 *155:B *34:8 5.50049e-05
8 *33:14 *176:A 0.000111045
*RES
1 *155:Y *34:8 42.4329 
2 *34:8 *176:A 46.2443 
*END

*D_NET *35 0.0013636
*CONN
*I *177:A I *D sky130_fd_sc_hd__buf_2
*I *159:X O *D sky130_fd_sc_hd__clkbuf_1
*CAP
1 *177:A 0
2 *159:X 0.000321287
3 *35:10 0.000321287
4 *35:10 *36:8 0
5 *35:10 *43:12 0.000348465
6 *155:B *35:10 0.000100625
7 *20:12 *35:10 7.55491e-05
8 *23:10 *35:10 0.000176903
9 *27:12 *35:10 1.94812e-05
*RES
1 *159:X *35:10 46.5136 
2 *35:10 *177:A 38 
*END

*D_NET *36 0.00109517
*CONN
*I *178:A I *D sky130_fd_sc_hd__clkbuf_4
*I *160:X O *D sky130_fd_sc_hd__xor2_1
*CAP
1 *178:A 0
2 *160:X 0.000245235
3 *36:8 0.000245235
4 *36:8 *43:12 0
5 *176:A *36:8 0.000407218
6 *33:14 *36:8 0.000197479
7 *35:10 *36:8 0
*RES
1 *160:X *36:8 44.1314 
2 *36:8 *178:A 38 
*END

*D_NET *37 0.00735877
*CONN
*I *149:A I *D sky130_fd_sc_hd__or4_2
*I *146:A I *D sky130_fd_sc_hd__nor2_1
*I *148:A1 I *D sky130_fd_sc_hd__o31a_1
*I *161:A I *D sky130_fd_sc_hd__and2_1
*I *165:X O *D sky130_fd_sc_hd__buf_1
*CAP
1 *149:A 0
2 *146:A 0
3 *148:A1 0
4 *161:A 2.0995e-05
5 *165:X 0.000537424
6 *37:41 0.000620106
7 *37:33 0.00108262
8 *37:16 0.000848088
9 *37:10 0.000902007
10 *37:10 *157:A1 3.23676e-05
11 *37:10 *41:34 0.000141869
12 *37:16 *38:12 0
13 *37:16 *38:40 6.15872e-05
14 *37:16 *39:14 0
15 *37:16 *41:34 0.000404056
16 *37:33 *40:23 0
17 *155:B *37:41 0
18 *23:10 *37:41 0
19 *24:26 *37:41 0.000253151
20 *25:25 *37:16 1.41077e-05
21 *25:25 *37:33 1.21972e-05
22 *26:10 *37:33 3.70094e-05
23 *27:12 *37:33 1.94418e-05
24 *27:12 *37:41 0.00021159
25 *28:10 *37:16 9.41704e-05
26 *29:39 *161:A 1.14154e-05
27 *29:39 *37:16 2.93747e-05
28 *29:39 *37:33 0.00049648
29 *29:39 *37:41 6.07611e-06
30 *29:45 *37:41 0.00107622
31 *31:14 *37:33 0.000278983
32 *33:8 *37:41 0.000167431
*RES
1 *165:X *37:10 45.7679 
2 *37:10 *37:16 22.9543 
3 *37:16 *161:A 23.4971 
4 *37:16 *37:33 27.5943 
5 *37:33 *37:41 35.59 
6 *37:41 *148:A1 23 
7 *37:33 *146:A 38 
8 *37:10 *149:A 38 
*END

*D_NET *38 0.00714073
*CONN
*I *149:C I *D sky130_fd_sc_hd__or4_2
*I *147:A I *D sky130_fd_sc_hd__xnor2_1
*I *148:A3 I *D sky130_fd_sc_hd__o31a_1
*I *166:X O *D sky130_fd_sc_hd__buf_1
*CAP
1 *149:C 0
2 *147:A 0
3 *148:A3 0
4 *166:X 0.000167444
5 *38:40 0.000228932
6 *38:20 0.0012675
7 *38:12 0.0018216
8 *38:6 0.000950475
9 *38:12 *39:14 0.00057175
10 *38:12 *41:34 0
11 *38:20 *39:33 0.000451097
12 *38:40 *39:14 0
13 out[4] *38:20 2.47015e-05
14 out[5] *38:20 0.000130212
15 *176:A *38:20 0.000443548
16 *19:6 *38:20 0.000356276
17 *19:14 *38:12 0
18 *22:10 *38:20 0
19 *30:6 *38:6 0.000229793
20 *30:6 *38:40 0.000132064
21 *31:8 *38:20 4.46315e-05
22 *32:10 *38:20 0.000111852
23 *33:14 *38:20 0.000147271
24 *37:16 *38:12 0
25 *37:16 *38:40 6.15872e-05
*RES
1 *166:X *38:6 25.5271 
2 *38:6 *38:12 42.47 
3 *38:12 *38:20 43.4614 
4 *38:20 *148:A3 38 
5 *38:12 *147:A 23 
6 *38:6 *38:40 33.48 
7 *38:40 *149:C 23 
*END

*D_NET *39 0.00729181
*CONN
*I *148:B1 I *D sky130_fd_sc_hd__o31a_1
*I *149:D I *D sky130_fd_sc_hd__or4_2
*I *167:X O *D sky130_fd_sc_hd__buf_1
*CAP
1 *148:B1 0
2 *149:D 0
3 *167:X 0.000348424
4 *39:33 0.000837459
5 *39:27 0.00188859
6 *39:14 0.000480358
7 *39:6 0.00187991
8 out[3] *39:33 5.05059e-05
9 out[4] *39:33 2.26497e-05
10 out[5] *39:33 0.00012758
11 *150:B *39:27 0.000356724
12 *19:14 *39:14 0
13 *20:12 *39:33 0
14 *22:10 *39:27 0.000103647
15 *22:10 *39:33 0
16 *28:10 *39:14 0
17 *29:8 *39:14 0
18 *29:12 *39:14 7.87877e-05
19 *32:10 *39:33 9.43301e-05
20 *37:16 *39:14 0
21 *38:12 *39:14 0.00057175
22 *38:20 *39:33 0.000451097
23 *38:40 *39:14 0
*RES
1 *167:X *39:6 27.4329 
2 *39:6 *39:14 41.2271 
3 *39:14 *149:D 23 
4 *39:6 *39:27 31.8614 
5 *39:27 *39:33 35.1343 
6 *39:33 *148:B1 23 
*END

*D_NET *40 0.00712893
*CONN
*I *157:A1 I *D sky130_fd_sc_hd__o31ai_1
*I *152:A I *D sky130_fd_sc_hd__nor2_1
*I *153:A I *D sky130_fd_sc_hd__and2_1
*I *156:A I *D sky130_fd_sc_hd__or4_1
*I *168:X O *D sky130_fd_sc_hd__buf_1
*CAP
1 *157:A1 0.000311775
2 *152:A 0.000443942
3 *153:A 0
4 *156:A 0
5 *168:X 0.000656789
6 *40:27 0.000498694
7 *40:23 0.00120041
8 *40:8 0.00149067
9 *157:A1 *157:B1 5.50106e-05
10 *157:A1 *41:34 7.68859e-05
11 *157:A1 *42:23 5.76076e-05
12 *157:A1 *44:8 0.000137788
13 *40:8 *42:23 1.21972e-05
14 *40:23 *42:23 6.95655e-05
15 *152:B *152:A 0.000359332
16 *157:A3 *157:A1 7.01207e-05
17 *21:8 *152:A 5.01897e-05
18 *21:8 *40:27 0.00014196
19 *21:15 *152:A 0.0002263
20 *21:27 *40:8 2.39411e-05
21 *21:27 *40:23 4.5051e-05
22 *25:25 *40:23 0.000736473
23 *26:10 *157:A1 0
24 *26:10 *40:23 0
25 *29:25 *152:A 0
26 *29:31 *157:A1 2.55642e-05
27 *29:31 *40:23 0.000406297
28 *29:39 *40:23 0
29 *29:45 *40:23 0
30 *37:10 *157:A1 3.23676e-05
31 *37:33 *40:23 0
*RES
1 *168:X *40:8 31.6171 
2 *40:8 *156:A 23 
3 *40:8 *40:23 34.0364 
4 *40:23 *40:27 16.5743 
5 *40:27 *153:A 23 
6 *40:27 *152:A 32.5907 
7 *40:23 *157:A1 45.2914 
*END

*D_NET *41 0.00767938
*CONN
*I *157:A2 I *D sky130_fd_sc_hd__o31ai_1
*I *156:B I *D sky130_fd_sc_hd__or4_1
*I *155:A I *D sky130_fd_sc_hd__xnor2_1
*I *169:X O *D sky130_fd_sc_hd__buf_1
*CAP
1 *157:A2 0
2 *156:B 0
3 *155:A 0
4 *169:X 0.00050061
5 *41:34 0.000917779
6 *41:21 0.00103691
7 *41:14 0.0004881
8 *41:8 0.00110785
9 *41:14 *42:12 0.000568589
10 *41:14 *43:6 0.000178383
11 *41:21 *42:12 0.000403387
12 *41:34 *42:12 5.01986e-05
13 *41:34 *42:23 0.00148371
14 *157:A1 *41:34 7.68859e-05
15 *25:12 *41:14 8.51329e-05
16 *25:12 *41:21 0.000210945
17 *25:12 *41:34 6.07611e-06
18 *25:25 *41:34 1.88972e-05
19 *29:45 *41:14 0
20 *37:10 *41:34 0.000141869
21 *37:16 *41:34 0.000404056
22 *38:12 *41:34 0
*RES
1 *169:X *41:8 45.7679 
2 *41:8 *41:14 28.1536 
3 *41:14 *155:A 23 
4 *41:8 *41:21 5.42714 
5 *41:21 *156:B 38 
6 *41:21 *41:34 37.1332 
7 *41:34 *157:A2 23 
*END

*D_NET *42 0.00731779
*CONN
*I *157:B1 I *D sky130_fd_sc_hd__o31ai_1
*I *156:C I *D sky130_fd_sc_hd__or4_1
*I *170:X O *D sky130_fd_sc_hd__buf_1
*CAP
1 *157:B1 1.49804e-05
2 *156:C 0
3 *170:X 0.000300286
4 *42:23 0.000626768
5 *42:12 0.00112763
6 *42:8 0.000816129
7 *42:8 *43:6 0.000542471
8 *157:A1 *157:B1 5.50106e-05
9 *157:A1 *42:23 5.76076e-05
10 *157:A3 *157:B1 5.50106e-05
11 *21:27 *42:23 9.5877e-05
12 *25:25 *42:23 0.000826695
13 *29:31 *42:23 0.000211681
14 *40:8 *42:23 1.21972e-05
15 *40:23 *42:23 6.95655e-05
16 *41:14 *42:12 0.000568589
17 *41:21 *42:12 0.000403387
18 *41:34 *42:12 5.01986e-05
19 *41:34 *42:23 0.00148371
*RES
1 *170:X *42:8 45.2914 
2 *42:8 *42:12 28.5264 
3 *42:12 *156:C 23 
4 *42:12 *42:23 35.9629 
5 *42:23 *157:B1 38.6214 
*END

*D_NET *43 0.00369897
*CONN
*I *160:A I *D sky130_fd_sc_hd__xor2_1
*I *171:X O *D sky130_fd_sc_hd__clkbuf_1
*CAP
1 *160:A 0
2 *171:X 0.000941266
3 *43:12 0.000169532
4 *43:6 0.0011108
5 *155:B *43:6 7.42621e-05
6 *20:12 *43:12 0.00014411
7 *33:14 *43:12 7.76364e-06
8 *34:8 *43:6 0.000181925
9 *35:10 *43:12 0.000348465
10 *36:8 *43:12 0
11 *41:14 *43:6 0.000178383
12 *42:8 *43:6 0.000542471
*RES
1 *171:X *43:6 37.9143 
2 *43:6 *43:12 34.7229 
3 *43:12 *160:A 23 
*END

*D_NET *44 0.00128904
*CONN
*I *179:A I *D sky130_fd_sc_hd__buf_2
*I *163:X O *D sky130_fd_sc_hd__clkbuf_1
*CAP
1 *179:A 0.000280033
2 *163:X 9.50422e-05
3 *44:8 0.000375075
4 *157:A1 *44:8 0.000137788
5 *157:A3 *179:A 0.000401106
6 *26:10 *44:8 0
*RES
1 *163:X *44:8 39.9057 
2 *44:8 *179:A 44.815 
*END
