*SPEF "ieee 1481-1999"
*DESIGN "labwork1_src"
*DATE "16:34:27 Friday April 25, 2025"
*VENDOR "The OpenROAD Project"
*PROGRAM "OpenROAD"
*VERSION "b16bda7e82721d10566ff7e2b68f1ff0be9f9e38"
*DESIGN_FLOW "NAME_SCOPE LOCAL" "PIN_CAP NONE"
*DIVIDER /
*DELIMITER :
*BUS_DELIMITER []
*T_UNIT 1 NS
*C_UNIT 1 PF
*R_UNIT 1 OHM
*L_UNIT 1 HENRY

*NAME_MAP
*3 in[0]
*4 in[1]
*5 in[2]
*6 in[3]
*7 in[4]
*8 in[5]
*9 in[6]
*10 in[7]
*11 out[0]
*12 out[1]
*13 out[2]
*14 out[3]
*15 out[4]
*16 out[5]
*17 out[6]
*18 out[7]
*19 _00_
*20 _01_
*21 _02_
*22 _03_
*23 _04_
*24 _05_
*25 _06_
*26 _07_
*27 _08_
*28 _09_
*29 net1
*30 net10
*31 net11
*32 net12
*33 net13
*34 net14
*35 net15
*36 net16
*37 net2
*38 net3
*39 net4
*40 net5
*41 net6
*42 net7
*43 net8
*44 net9
*45 FILLER_0_0_21
*46 FILLER_0_0_27
*47 FILLER_0_0_36
*48 FILLER_0_0_9
*49 FILLER_0_10_11
*50 FILLER_0_10_23
*51 FILLER_0_10_27
*52 FILLER_0_10_29
*53 FILLER_0_10_3
*54 FILLER_0_10_41
*55 FILLER_0_11_15
*56 FILLER_0_11_27
*57 FILLER_0_11_3
*58 FILLER_0_11_33
*59 FILLER_0_11_41
*60 FILLER_0_11_46
*61 FILLER_0_12_17
*62 FILLER_0_12_24
*63 FILLER_0_12_29
*64 FILLER_0_12_37
*65 FILLER_0_12_9
*66 FILLER_0_1_15
*67 FILLER_0_1_27
*68 FILLER_0_1_3
*69 FILLER_0_1_33
*70 FILLER_0_1_37
*71 FILLER_0_2_15
*72 FILLER_0_2_27
*73 FILLER_0_2_29
*74 FILLER_0_2_3
*75 FILLER_0_2_44
*76 FILLER_0_3_18
*77 FILLER_0_3_30
*78 FILLER_0_3_38
*79 FILLER_0_3_42
*80 FILLER_0_3_6
*81 FILLER_0_4_15
*82 FILLER_0_4_27
*83 FILLER_0_4_29
*84 FILLER_0_4_3
*85 FILLER_0_4_41
*86 FILLER_0_4_47
*87 FILLER_0_5_24
*88 FILLER_0_5_36
*89 FILLER_0_5_40
*90 FILLER_0_5_6
*91 FILLER_0_6_11
*92 FILLER_0_6_20
*93 FILLER_0_6_3
*94 FILLER_0_6_32
*95 FILLER_0_6_44
*96 FILLER_0_7_15
*97 FILLER_0_7_27
*98 FILLER_0_7_3
*99 FILLER_0_7_39
*100 FILLER_0_7_43
*101 FILLER_0_8_18
*102 FILLER_0_8_26
*103 FILLER_0_8_29
*104 FILLER_0_8_37
*105 FILLER_0_8_46
*106 FILLER_0_8_6
*107 FILLER_0_9_15
*108 FILLER_0_9_21
*109 FILLER_0_9_27
*110 FILLER_0_9_3
*111 FILLER_0_9_35
*112 FILLER_0_9_47
*113 PHY_EDGE_ROW_0_Left_13
*114 PHY_EDGE_ROW_0_Right_0
*115 PHY_EDGE_ROW_10_Left_23
*116 PHY_EDGE_ROW_10_Right_10
*117 PHY_EDGE_ROW_11_Left_24
*118 PHY_EDGE_ROW_11_Right_11
*119 PHY_EDGE_ROW_12_Left_25
*120 PHY_EDGE_ROW_12_Right_12
*121 PHY_EDGE_ROW_1_Left_14
*122 PHY_EDGE_ROW_1_Right_1
*123 PHY_EDGE_ROW_2_Left_15
*124 PHY_EDGE_ROW_2_Right_2
*125 PHY_EDGE_ROW_3_Left_16
*126 PHY_EDGE_ROW_3_Right_3
*127 PHY_EDGE_ROW_4_Left_17
*128 PHY_EDGE_ROW_4_Right_4
*129 PHY_EDGE_ROW_5_Left_18
*130 PHY_EDGE_ROW_5_Right_5
*131 PHY_EDGE_ROW_6_Left_19
*132 PHY_EDGE_ROW_6_Right_6
*133 PHY_EDGE_ROW_7_Left_20
*134 PHY_EDGE_ROW_7_Right_7
*135 PHY_EDGE_ROW_8_Left_21
*136 PHY_EDGE_ROW_8_Right_8
*137 PHY_EDGE_ROW_9_Left_22
*138 PHY_EDGE_ROW_9_Right_9
*139 TAP_TAPCELL_ROW_0_26
*140 TAP_TAPCELL_ROW_10_31
*141 TAP_TAPCELL_ROW_12_32
*142 TAP_TAPCELL_ROW_2_27
*143 TAP_TAPCELL_ROW_4_28
*144 TAP_TAPCELL_ROW_6_29
*145 TAP_TAPCELL_ROW_8_30
*146 _10_
*147 _11_
*148 _12_
*149 _13_
*150 _14_
*151 _15_
*152 _16_
*153 _17_
*154 _18_
*155 _19_
*156 _20_
*157 _21_
*158 _22_
*159 _23_
*160 _24_
*161 _25_
*162 _26_
*163 _27_
*164 input1
*165 input2
*166 input3
*167 input4
*168 input5
*169 input6
*170 input7
*171 input8
*172 output10
*173 output11
*174 output12
*175 output13
*176 output14
*177 output15
*178 output16
*179 output9

*PORTS
in[0] I
in[1] I
in[2] I
in[3] I
in[4] I
in[5] I
in[6] I
in[7] I
out[0] O
out[1] O
out[2] O
out[3] O
out[4] O
out[5] O
out[6] O
out[7] O

*D_NET *3 0.00108348
*CONN
*P in[0] I
*I *164:A I *D sky130_fd_sc_hd__buf_1
*CAP
1 in[0] 0.000541738
2 *164:A 0.000541738
3 *164:A *165:A 0
*RES
1 in[0] *164:A 24.4979 
*END

*D_NET *4 0.000799338
*CONN
*P in[1] I
*I *165:A I *D sky130_fd_sc_hd__buf_1
*CAP
1 in[1] 0.000399669
2 *165:A 0.000399669
3 *165:A *166:A 0
4 *164:A *165:A 0
*RES
1 in[1] *165:A 22.141 
*END

*D_NET *5 0.000883816
*CONN
*P in[2] I
*I *166:A I *D sky130_fd_sc_hd__buf_1
*CAP
1 in[2] 0.000432751
2 *166:A 0.000432751
3 *166:A *162:A 0
4 *166:A *167:A 0
5 *166:A *172:A 1.83136e-05
6 *165:A *166:A 0
*RES
1 in[2] *166:A 22.7268 
*END

*D_NET *6 0.000694675
*CONN
*P in[3] I
*I *167:A I *D sky130_fd_sc_hd__buf_1
*CAP
1 in[3] 0.000347337
2 *167:A 0.000347337
3 *167:A *162:A 0
4 *167:A *168:A 0
5 *166:A *167:A 0
*RES
1 in[3] *167:A 21.6946 
*END

*D_NET *7 0.000605554
*CONN
*P in[4] I
*I *168:A I *D sky130_fd_sc_hd__buf_1
*CAP
1 in[4] 0.000302777
2 *168:A 0.000302777
3 *168:A *169:A 0
4 *167:A *168:A 0
*RES
1 in[4] *168:A 20.7838 
*END

*D_NET *8 0.000715317
*CONN
*P in[5] I
*I *169:A I *D sky130_fd_sc_hd__buf_1
*CAP
1 in[5] 0.000357659
2 *169:A 0.000357659
3 *169:A *170:A 0
4 *168:A *169:A 0
*RES
1 in[5] *169:A 21.9981 
*END

*D_NET *9 0.000563768
*CONN
*P in[6] I
*I *170:A I *D sky130_fd_sc_hd__buf_1
*CAP
1 in[6] 0.000281884
2 *170:A 0.000281884
3 *170:A *171:A 0
4 *169:A *170:A 0
*RES
1 in[6] *170:A 20.4803 
*END

*D_NET *10 0.00123174
*CONN
*P in[7] I
*I *171:A I *D sky130_fd_sc_hd__clkbuf_1
*CAP
1 in[7] 0.000615872
2 *171:A 0.000615872
3 *170:A *171:A 0
*RES
1 in[7] *171:A 25.0176 
*END

*D_NET *11 0.00116601
*CONN
*P out[0] O
*I *179:X O *D sky130_fd_sc_hd__buf_2
*CAP
1 out[0] 0.000583005
2 *179:X 0.000583005
3 out[0] out[1] 0
*RES
1 *179:X out[0] 23.8754 
*END

*D_NET *12 0.000438356
*CONN
*P out[1] O
*I *172:X O *D sky130_fd_sc_hd__buf_2
*CAP
1 out[1] 0.000219178
2 *172:X 0.000219178
3 out[1] out[2] 0
4 out[0] out[1] 0
*RES
1 *172:X out[1] 18.1229 
*END

*D_NET *13 0.000448077
*CONN
*P out[2] O
*I *173:X O *D sky130_fd_sc_hd__buf_2
*CAP
1 out[2] 0.000224038
2 *173:X 0.000224038
3 out[2] out[3] 0
4 out[2] *23:10 0
5 out[1] out[2] 0
*RES
1 *173:X out[2] 18.1229 
*END

*D_NET *14 0.000519243
*CONN
*P out[3] O
*I *174:X O *D sky130_fd_sc_hd__buf_2
*CAP
1 out[3] 0.000236852
2 *174:X 0.000236852
3 out[3] out[4] 0
4 out[3] *151:A 0
5 out[3] *39:33 4.5539e-05
6 out[2] out[3] 0
*RES
1 *174:X out[3] 18.4264 
*END

*D_NET *15 0.000477596
*CONN
*P out[4] O
*I *175:X O *D sky130_fd_sc_hd__buf_2
*CAP
1 out[4] 0.000217387
2 *175:X 0.000217387
3 out[4] out[5] 0
4 out[4] *148:A3 2.22043e-05
5 out[4] *39:33 2.06178e-05
6 out[3] out[4] 0
*RES
1 *175:X out[4] 18.1229 
*END

*D_NET *16 0.000713927
*CONN
*P out[5] O
*I *176:X O *D sky130_fd_sc_hd__buf_2
*CAP
1 out[5] 0.000240568
2 *176:X 0.000240568
3 out[5] out[6] 0
4 out[5] *148:A3 0.000117421
5 out[5] *39:33 0.000115369
6 out[4] out[5] 0
*RES
1 *176:X out[5] 19.3371 
*END

*D_NET *17 0.000839967
*CONN
*P out[6] O
*I *177:X O *D sky130_fd_sc_hd__buf_2
*CAP
1 out[6] 0.000419984
2 *177:X 0.000419984
3 out[6] out[7] 0
4 out[5] out[6] 0
*RES
1 *177:X out[6] 18.5553 
*END

*D_NET *18 0.00103775
*CONN
*P out[7] O
*I *178:X O *D sky130_fd_sc_hd__clkbuf_4
*CAP
1 out[7] 0.000518877
2 *178:X 0.000518877
3 out[6] out[7] 0
*RES
1 *178:X out[7] 24.4258 
*END

*D_NET *19 0.00278924
*CONN
*I *147:B I *D sky130_fd_sc_hd__xnor2_1
*I *162:A I *D sky130_fd_sc_hd__nor2_1
*I *146:Y O *D sky130_fd_sc_hd__nor2_1
*CAP
1 *147:B 0
2 *162:A 0.000738408
3 *146:Y 0.000208745
4 *19:6 0.000947153
5 *162:A *149:D 0
6 *162:A *162:B 6.65398e-05
7 *162:A *38:12 0
8 *19:6 *148:A3 0.000348125
9 *19:6 *173:A 0.000480268
10 *166:A *162:A 0
11 *167:A *162:A 0
*RES
1 *146:Y *19:6 15.9964 
2 *19:6 *162:A 31.6571 
3 *19:6 *147:B 9.3 
*END

*D_NET *20 0.00238244
*CONN
*I *150:A_N I *D sky130_fd_sc_hd__and2b_1
*I *148:X O *D sky130_fd_sc_hd__o31a_1
*CAP
1 *150:A_N 0.000607719
2 *148:X 0.000607719
3 *150:A_N *151:A 0.000516045
4 *150:A_N *160:A 0.000129868
5 *150:A_N *175:A 0.000448573
6 *150:A_N *177:A 7.252e-05
7 *150:A_N *23:10 0
8 *150:A_N *39:33 0
*RES
1 *148:X *150:A_N 44.0464 
*END

*D_NET *21 0.00825091
*CONN
*I *152:B I *D sky130_fd_sc_hd__nor2_1
*I *157:A3 I *D sky130_fd_sc_hd__o31ai_1
*I *150:B I *D sky130_fd_sc_hd__and2b_1
*I *156:D I *D sky130_fd_sc_hd__or4_1
*I *153:B I *D sky130_fd_sc_hd__and2_1
*I *149:X O *D sky130_fd_sc_hd__or4_2
*CAP
1 *152:B 6.28082e-05
2 *157:A3 0.000341745
3 *150:B 0.000169585
4 *156:D 0.000657098
5 *153:B 0
6 *149:X 0.000215755
7 *21:19 0.00104022
8 *21:17 0.000555279
9 *21:15 0.000147146
10 *21:8 0.000300092
11 *150:B *39:33 0.000358971
12 *152:B *152:A 0.00036192
13 *152:B *23:10 0.000175502
14 *156:D *154:B 0.00015091
15 *156:D *157:B1 9.60939e-05
16 *156:D *159:A 0.000636384
17 *156:D *23:10 0.000634662
18 *156:D *40:8 2.51072e-05
19 *156:D *40:23 4.43256e-05
20 *157:A3 *157:A1 6.91967e-05
21 *157:A3 *157:B1 5.52302e-05
22 *157:A3 *158:B 0.000356022
23 *157:A3 *172:A 0
24 *157:A3 *179:A 0.00040381
25 *21:8 *152:A 4.93336e-05
26 *21:8 *29:25 5.03772e-05
27 *21:8 *40:27 0.000142856
28 *21:15 *152:A 0.000227532
29 *21:19 *154:B 0.000134328
30 *21:19 *158:B 0
31 *21:19 *159:A 0.000119618
32 *21:19 *172:A 0
33 *21:19 *173:A 0.000132198
34 *21:19 *23:10 0.000536809
*RES
1 *149:X *21:8 13.4429 
2 *21:8 *153:B 9.3 
3 *21:8 *21:15 2.17857 
4 *21:15 *21:17 4.5 
5 *21:17 *21:19 7.41071 
6 *21:19 *156:D 29.6571 
7 *21:19 *150:B 17.7643 
8 *21:17 *157:A3 22.05 
9 *21:15 *152:B 12.7107 
*END

*D_NET *22 0.00137643
*CONN
*I *151:A I *D sky130_fd_sc_hd__clkbuf_1
*I *150:X O *D sky130_fd_sc_hd__and2b_1
*CAP
1 *151:A 0.000309552
2 *150:X 0.000309552
3 *151:A *148:A3 0
4 *151:A *174:A 0.000128822
5 *151:A *175:A 1.02504e-05
6 *151:A *39:33 0.000102207
7 out[3] *151:A 0
8 *150:A_N *151:A 0.000516045
*RES
1 *150:X *151:A 35.8679 
*END

*D_NET *23 0.00476918
*CONN
*I *154:A I *D sky130_fd_sc_hd__nor2_1
*I *155:B I *D sky130_fd_sc_hd__xnor2_1
*I *152:Y O *D sky130_fd_sc_hd__nor2_1
*CAP
1 *154:A 0
2 *155:B 0.000194914
3 *152:Y 0.00102697
4 *23:10 0.00122188
5 *155:B *148:A1 0
6 *155:B *148:A2 0
7 *155:B *154:B 5.80706e-06
8 *155:B *160:A 7.32955e-05
9 *155:B *176:A 5.52238e-05
10 *155:B *177:A 9.67416e-05
11 *23:10 *148:A1 0
12 *23:10 *154:B 0.000396653
13 *23:10 *159:A 0.000181134
14 *23:10 *172:A 0
15 *23:10 *177:A 0.000169581
16 out[2] *23:10 0
17 *150:A_N *23:10 0
18 *152:B *23:10 0.000175502
19 *156:D *23:10 0.000634662
20 *21:19 *23:10 0.000536809
*RES
1 *152:Y *23:10 40.6036 
2 *23:10 *155:B 18.1214 
3 *23:10 *154:A 13.8 
*END

*D_NET *24 0.00482211
*CONN
*I *154:B I *D sky130_fd_sc_hd__nor2_1
*I *153:X O *D sky130_fd_sc_hd__and2_1
*CAP
1 *154:B 0.00166153
2 *153:X 0.00166153
3 *154:B *148:A1 0.000278553
4 *154:B *148:A2 0.000132788
5 *154:B *158:B 2.26973e-05
6 *154:B *159:A 0.000163256
7 *154:B *173:A 0.000112789
8 *154:B *37:33 0.000101262
9 *155:B *154:B 5.80706e-06
10 *156:D *154:B 0.00015091
11 *21:19 *154:B 0.000134328
12 *23:10 *154:B 0.000396653
*RES
1 *153:X *154:B 49.7378 
*END

*D_NET *25 0.00419277
*CONN
*I *158:A I *D sky130_fd_sc_hd__and2_1
*I *160:B I *D sky130_fd_sc_hd__xor2_1
*I *156:X O *D sky130_fd_sc_hd__or4_1
*CAP
1 *158:A 0.000427421
2 *160:B 0.000681206
3 *156:X 0
4 *25:6 0.00110863
5 *158:A *148:A2 0
6 *158:A *157:A2 1.81709e-05
7 *158:A *157:B1 0.000746292
8 *158:A *29:39 0.000227532
9 *158:A *37:16 1.39841e-05
10 *158:A *37:33 1.21258e-05
11 *158:A *40:23 0.000668006
12 *160:B *148:A2 0
13 *160:B *155:A 8.15939e-05
14 *160:B *157:A2 5.80706e-06
15 *160:B *41:21 0.000202005
*RES
1 *156:X *25:6 13.8 
2 *25:6 *160:B 26.5857 
3 *25:6 *158:A 27.3714 
*END

*D_NET *26 0.00174212
*CONN
*I *158:B I *D sky130_fd_sc_hd__and2_1
*I *157:Y O *D sky130_fd_sc_hd__o31ai_1
*CAP
1 *158:B 0.00061713
2 *157:Y 0.00061713
3 *158:B *157:A1 0
4 *158:B *173:A 9.57064e-05
5 *158:B *179:A 0
6 *158:B *37:33 3.34295e-05
7 *158:B *40:23 0
8 *154:B *158:B 2.26973e-05
9 *157:A3 *158:B 0.000356022
10 *21:19 *158:B 0
*RES
1 *157:Y *158:B 38.0464 
*END

*D_NET *27 0.0028704
*CONN
*I *159:A I *D sky130_fd_sc_hd__clkbuf_1
*I *158:X O *D sky130_fd_sc_hd__and2_1
*CAP
1 *159:A 0.000516236
2 *158:X 0.000516236
3 *159:A *148:A1 0.000209659
4 *159:A *173:A 0.000489443
5 *159:A *177:A 1.92905e-05
6 *159:A *37:33 1.91418e-05
7 *154:B *159:A 0.000163256
8 *156:D *159:A 0.000636384
9 *21:19 *159:A 0.000119618
10 *23:10 *159:A 0.000181134
*RES
1 *158:X *159:A 44.3857 
*END

*D_NET *28 0.00145775
*CONN
*I *162:B I *D sky130_fd_sc_hd__nor2_1
*I *161:X O *D sky130_fd_sc_hd__and2_1
*CAP
1 *162:B 0.000648522
2 *161:X 0.000648522
3 *162:B *149:D 0
4 *162:B *37:16 9.41642e-05
5 *162:A *162:B 6.65398e-05
*RES
1 *161:X *162:B 35.5286 
*END

*D_NET *29 0.00681344
*CONN
*I *163:A I *D sky130_fd_sc_hd__clkbuf_1
*I *161:B I *D sky130_fd_sc_hd__and2_1
*I *146:B I *D sky130_fd_sc_hd__nor2_1
*I *148:A2 I *D sky130_fd_sc_hd__o31a_1
*I *149:B I *D sky130_fd_sc_hd__or4_2
*I *164:X O *D sky130_fd_sc_hd__buf_1
*CAP
1 *163:A 0
2 *161:B 0
3 *146:B 0
4 *148:A2 0.000859129
5 *149:B 1.99254e-05
6 *164:X 0.00047782
7 *29:39 0.00123545
8 *29:31 0.000511435
9 *29:25 0.0003483
10 *29:12 0.00071093
11 *148:A2 *148:A1 0.00105586
12 *148:A2 *155:A 0
13 *148:A2 *40:23 0
14 *29:12 *149:D 7.6507e-05
15 *29:25 *152:A 0
16 *29:31 *157:A1 2.31791e-05
17 *29:31 *157:B1 0.00020305
18 *29:31 *40:23 0.000366689
19 *29:39 *148:A1 5.80706e-06
20 *29:39 *161:A 1.04232e-05
21 *29:39 *37:16 2.89016e-05
22 *29:39 *37:33 0.000469339
23 *29:39 *40:23 0
24 *154:B *148:A2 0.000132788
25 *155:B *148:A2 0
26 *158:A *148:A2 0
27 *158:A *29:39 0.000227532
28 *160:B *148:A2 0
29 *21:8 *29:25 5.03772e-05
*RES
1 *164:X *29:12 26.0143 
2 *29:12 *149:B 9.72857 
3 *29:12 *29:25 3.44643 
4 *29:25 *29:31 13.9821 
5 *29:31 *29:39 14.5179 
6 *29:39 *148:A2 32.6571 
7 *29:39 *146:B 13.8 
8 *29:31 *161:B 9.3 
9 *29:25 *163:A 9.3 
*END

*D_NET *30 0.00298221
*CONN
*I *172:A I *D sky130_fd_sc_hd__buf_2
*I *162:Y O *D sky130_fd_sc_hd__nor2_1
*CAP
1 *172:A 0.00117224
2 *162:Y 0.00117224
3 *172:A *149:C 0.000129297
4 *172:A *173:A 0.000264144
5 *172:A *38:6 0.000225982
6 *157:A3 *172:A 0
7 *166:A *172:A 1.83136e-05
8 *21:19 *172:A 0
9 *23:10 *172:A 0
*RES
1 *162:Y *172:A 47.2964 
*END

*D_NET *31 0.00338926
*CONN
*I *173:A I *D sky130_fd_sc_hd__buf_2
*I *147:Y O *D sky130_fd_sc_hd__xnor2_1
*CAP
1 *173:A 0.00075041
2 *147:Y 0.00075041
3 *173:A *148:A3 4.4533e-05
4 *173:A *37:33 0.000269361
5 *154:B *173:A 0.000112789
6 *158:B *173:A 9.57064e-05
7 *159:A *173:A 0.000489443
8 *172:A *173:A 0.000264144
9 *19:6 *173:A 0.000480268
10 *21:19 *173:A 0.000132198
*RES
1 *147:Y *173:A 47.35 
*END

*D_NET *32 0.000680236
*CONN
*I *174:A I *D sky130_fd_sc_hd__buf_2
*I *151:X O *D sky130_fd_sc_hd__clkbuf_1
*CAP
1 *174:A 0.000162443
2 *151:X 0.000162443
3 *174:A *148:A3 0.000101545
4 *174:A *175:A 3.18676e-05
5 *174:A *39:33 9.31149e-05
6 *151:A *174:A 0.000128822
*RES
1 *151:X *174:A 32.5107 
*END

*D_NET *33 0.0019767
*CONN
*I *175:A I *D sky130_fd_sc_hd__buf_2
*I *154:Y O *D sky130_fd_sc_hd__nor2_1
*CAP
1 *175:A 0.000441714
2 *154:Y 0.000441714
3 *175:A *148:A1 0.000164835
4 *175:A *148:A3 0.000145688
5 *175:A *160:A 7.80714e-06
6 *175:A *176:A 0.000106299
7 *175:A *178:A 0.000177948
8 *150:A_N *175:A 0.000448573
9 *151:A *175:A 1.02504e-05
10 *174:A *175:A 3.18676e-05
*RES
1 *154:Y *175:A 41.0821 
*END

*D_NET *34 0.00186766
*CONN
*I *176:A I *D sky130_fd_sc_hd__buf_2
*I *155:Y O *D sky130_fd_sc_hd__xnor2_1
*CAP
1 *176:A 0.000378594
2 *155:Y 0.000378594
3 *176:A *148:A3 0.000398849
4 *176:A *160:A 0.0001827
5 *176:A *178:A 0.000367396
6 *155:B *176:A 5.52238e-05
7 *175:A *176:A 0.000106299
*RES
1 *155:Y *176:A 38.5286 
*END

*D_NET *35 0.00119523
*CONN
*I *177:A I *D sky130_fd_sc_hd__buf_2
*I *159:X O *D sky130_fd_sc_hd__clkbuf_1
*CAP
1 *177:A 0.000260959
2 *159:X 0.000260959
3 *177:A *160:A 0.000315179
4 *177:A *178:A 0
5 *150:A_N *177:A 7.252e-05
6 *155:B *177:A 9.67416e-05
7 *159:A *177:A 1.92905e-05
8 *23:10 *177:A 0.000169581
*RES
1 *159:X *177:A 34.9393 
*END

*D_NET *36 0.000943977
*CONN
*I *178:A I *D sky130_fd_sc_hd__clkbuf_4
*I *160:X O *D sky130_fd_sc_hd__xor2_1
*CAP
1 *178:A 0.000199316
2 *160:X 0.000199316
3 *178:A *160:A 0
4 *175:A *178:A 0.000177948
5 *176:A *178:A 0.000367396
6 *177:A *178:A 0
*RES
1 *160:X *178:A 32.8857 
*END

*D_NET *37 0.00681086
*CONN
*I *149:A I *D sky130_fd_sc_hd__or4_2
*I *146:A I *D sky130_fd_sc_hd__nor2_1
*I *148:A1 I *D sky130_fd_sc_hd__o31a_1
*I *161:A I *D sky130_fd_sc_hd__and2_1
*I *165:X O *D sky130_fd_sc_hd__buf_1
*CAP
1 *149:A 0
2 *146:A 0
3 *148:A1 0.000518385
4 *161:A 1.99857e-05
5 *165:X 0.000502001
6 *37:33 0.000903805
7 *37:16 0.000709177
8 *37:10 0.000805772
9 *37:10 *157:A1 3.24142e-05
10 *37:10 *157:A2 0.000128146
11 *37:16 *149:C 5.93614e-05
12 *37:16 *149:D 0
13 *37:16 *157:A2 0.000364967
14 *37:16 *38:12 0
15 *37:33 *40:23 0
16 *148:A2 *148:A1 0.00105586
17 *154:B *148:A1 0.000278553
18 *154:B *37:33 0.000101262
19 *155:B *148:A1 0
20 *158:A *37:16 1.39841e-05
21 *158:A *37:33 1.21258e-05
22 *158:B *37:33 3.34295e-05
23 *159:A *148:A1 0.000209659
24 *159:A *37:33 1.91418e-05
25 *162:B *37:16 9.41642e-05
26 *173:A *37:33 0.000269361
27 *175:A *148:A1 0.000164835
28 *23:10 *148:A1 0
29 *29:39 *148:A1 5.80706e-06
30 *29:39 *161:A 1.04232e-05
31 *29:39 *37:16 2.89016e-05
32 *29:39 *37:33 0.000469339
*RES
1 *165:X *37:10 20.4964 
2 *37:10 *37:16 11.3571 
3 *37:16 *161:A 9.72857 
4 *37:16 *37:33 15.3571 
5 *37:33 *148:A1 31.55 
6 *37:33 *146:A 13.8 
7 *37:10 *149:A 13.8 
*END

*D_NET *38 0.00641251
*CONN
*I *149:C I *D sky130_fd_sc_hd__or4_2
*I *147:A I *D sky130_fd_sc_hd__xnor2_1
*I *148:A3 I *D sky130_fd_sc_hd__o31a_1
*I *166:X O *D sky130_fd_sc_hd__buf_1
*CAP
1 *149:C 0.000194079
2 *147:A 0
3 *148:A3 0.00109724
4 *166:X 0.000155799
5 *38:12 0.00158643
6 *38:6 0.000839068
7 *148:A3 *39:33 0.000431847
8 *149:C *149:D 0
9 *38:12 *149:D 0.000515037
10 *38:12 *157:A2 0
11 out[4] *148:A3 2.22043e-05
12 out[5] *148:A3 0.000117421
13 *151:A *148:A3 0
14 *162:A *38:12 0
15 *172:A *149:C 0.000129297
16 *172:A *38:6 0.000225982
17 *173:A *148:A3 4.4533e-05
18 *174:A *148:A3 0.000101545
19 *175:A *148:A3 0.000145688
20 *176:A *148:A3 0.000398849
21 *19:6 *148:A3 0.000348125
22 *37:16 *149:C 5.93614e-05
23 *37:16 *38:12 0
*RES
1 *166:X *38:6 11.4786 
2 *38:6 *38:12 19.75 
3 *38:12 *148:A3 42.8357 
4 *38:12 *147:A 9.3 
5 *38:6 *149:C 21.3 
*END

*D_NET *39 0.00662847
*CONN
*I *148:B1 I *D sky130_fd_sc_hd__o31a_1
*I *149:D I *D sky130_fd_sc_hd__or4_2
*I *167:X O *D sky130_fd_sc_hd__buf_1
*CAP
1 *148:B1 0
2 *149:D 0.000420982
3 *167:X 0.000335137
4 *39:33 0.00167851
5 *39:6 0.00243463
6 out[3] *39:33 4.5539e-05
7 out[4] *39:33 2.06178e-05
8 out[5] *39:33 0.000115369
9 *148:A3 *39:33 0.000431847
10 *149:C *149:D 0
11 *150:A_N *39:33 0
12 *150:B *39:33 0.000358971
13 *151:A *39:33 0.000102207
14 *162:A *149:D 0
15 *162:B *149:D 0
16 *174:A *39:33 9.31149e-05
17 *29:12 *149:D 7.6507e-05
18 *37:16 *149:D 0
19 *38:12 *149:D 0.000515037
*RES
1 *167:X *39:6 13.1214 
2 *39:6 *149:D 27.9786 
3 *39:6 *39:33 40.8929 
4 *39:33 *148:B1 9.3 
*END

*D_NET *40 0.00651924
*CONN
*I *157:A1 I *D sky130_fd_sc_hd__o31ai_1
*I *152:A I *D sky130_fd_sc_hd__nor2_1
*I *153:A I *D sky130_fd_sc_hd__and2_1
*I *156:A I *D sky130_fd_sc_hd__or4_1
*I *168:X O *D sky130_fd_sc_hd__buf_1
*CAP
1 *157:A1 0.0002656
2 *152:A 0.000411299
3 *153:A 0
4 *156:A 0
5 *168:X 0.000622757
6 *40:27 0.000460344
7 *40:23 0.00102215
8 *40:8 0.00133026
9 *157:A1 *157:A2 7.70668e-05
10 *157:A1 *157:B1 0.00011282
11 *157:A1 *179:A 0.00012501
12 *40:8 *157:B1 1.21258e-05
13 *40:23 *157:B1 6.92424e-05
14 *148:A2 *40:23 0
15 *152:B *152:A 0.00036192
16 *156:D *40:8 2.51072e-05
17 *156:D *40:23 4.43256e-05
18 *157:A3 *157:A1 6.91967e-05
19 *158:A *40:23 0.000668006
20 *158:B *157:A1 0
21 *158:B *40:23 0
22 *21:8 *152:A 4.93336e-05
23 *21:8 *40:27 0.000142856
24 *21:15 *152:A 0.000227532
25 *29:25 *152:A 0
26 *29:31 *157:A1 2.31791e-05
27 *29:31 *40:23 0.000366689
28 *29:39 *40:23 0
29 *37:10 *157:A1 3.24142e-05
30 *37:33 *40:23 0
*RES
1 *168:X *40:8 16.7286 
2 *40:8 *156:A 9.3 
3 *40:8 *40:23 20.9107 
4 *40:23 *40:27 5.85714 
5 *40:27 *153:A 9.3 
6 *40:27 *152:A 17.5679 
7 *40:23 *157:A1 20.0857 
*END

*D_NET *41 0.00679511
*CONN
*I *157:A2 I *D sky130_fd_sc_hd__o31ai_1
*I *156:B I *D sky130_fd_sc_hd__or4_1
*I *155:A I *D sky130_fd_sc_hd__xnor2_1
*I *169:X O *D sky130_fd_sc_hd__buf_1
*CAP
1 *157:A2 0.000745643
2 *156:B 0
3 *155:A 0.00043466
4 *169:X 0.000461864
5 *41:21 0.000843657
6 *41:8 0.000994537
7 *155:A *160:A 0.000176208
8 *155:A *42:12 0.000512608
9 *157:A2 *157:B1 0.00133953
10 *157:A2 *42:12 4.56437e-05
11 *41:21 *42:12 0.000362997
12 *148:A2 *155:A 0
13 *157:A1 *157:A2 7.70668e-05
14 *158:A *157:A2 1.81709e-05
15 *160:B *155:A 8.15939e-05
16 *160:B *157:A2 5.80706e-06
17 *160:B *41:21 0.000202005
18 *37:10 *157:A2 0.000128146
19 *37:16 *157:A2 0.000364967
20 *38:12 *157:A2 0
*RES
1 *169:X *41:8 20.4964 
2 *41:8 *155:A 25.1393 
3 *41:8 *41:21 4.67857 
4 *41:21 *156:B 13.8 
5 *41:21 *157:A2 32.8804 
*END

*D_NET *42 0.00650272
*CONN
*I *157:B1 I *D sky130_fd_sc_hd__o31ai_1
*I *156:C I *D sky130_fd_sc_hd__or4_1
*I *170:X O *D sky130_fd_sc_hd__buf_1
*CAP
1 *157:B1 0.000481603
2 *156:C 0
3 *170:X 0.000725399
4 *42:12 0.001207
5 *42:12 *160:A 0.000533084
6 *155:A *42:12 0.000512608
7 *156:D *157:B1 9.60939e-05
8 *157:A1 *157:B1 0.00011282
9 *157:A2 *157:B1 0.00133953
10 *157:A2 *42:12 4.56437e-05
11 *157:A3 *157:B1 5.52302e-05
12 *158:A *157:B1 0.000746292
13 *29:31 *157:B1 0.00020305
14 *40:8 *157:B1 1.21258e-05
15 *40:23 *157:B1 6.92424e-05
16 *41:21 *42:12 0.000362997
*RES
1 *170:X *42:12 36.2464 
2 *42:12 *156:C 9.3 
3 *42:12 *157:B1 36.9071 
*END

*D_NET *43 0.00350385
*CONN
*I *160:A I *D sky130_fd_sc_hd__xor2_1
*I *171:X O *D sky130_fd_sc_hd__clkbuf_1
*CAP
1 *160:A 0.00104286
2 *171:X 0.00104286
3 *150:A_N *160:A 0.000129868
4 *155:A *160:A 0.000176208
5 *155:B *160:A 7.32955e-05
6 *175:A *160:A 7.80714e-06
7 *176:A *160:A 0.0001827
8 *177:A *160:A 0.000315179
9 *178:A *160:A 0
10 *42:12 *160:A 0.000533084
*RES
1 *171:X *160:A 44.5286 
*END

*D_NET *44 0.00120602
*CONN
*I *179:A I *D sky130_fd_sc_hd__buf_2
*I *163:X O *D sky130_fd_sc_hd__clkbuf_1
*CAP
1 *179:A 0.000338598
2 *163:X 0.000338598
3 *157:A1 *179:A 0.00012501
4 *157:A3 *179:A 0.00040381
5 *158:B *179:A 0
*RES
1 *163:X *179:A 35.1179 
*END
