*SPEF "ieee 1481-1999"
*DESIGN "counter"
*DATE "13:30:12 Monday May 19, 2025"
*VENDOR "The OpenROAD Project"
*PROGRAM "OpenROAD"
*VERSION "b16bda7e82721d10566ff7e2b68f1ff0be9f9e38"
*DESIGN_FLOW "NAME_SCOPE LOCAL" "PIN_CAP NONE"
*DIVIDER /
*DELIMITER :
*BUS_DELIMITER []
*T_UNIT 1 NS
*C_UNIT 1 PF
*R_UNIT 1 OHM
*L_UNIT 1 HENRY

*NAME_MAP
*3 clk
*4 count[0]
*5 count[1]
*6 count[2]
*7 count[3]
*8 rst
*9 _00_
*10 _01_
*11 _02_
*12 _03_
*13 _04_
*14 _05_
*15 _06_
*16 _07_
*17 _08_
*18 clknet_0_clk
*19 clknet_1_0__leaf_clk
*20 clknet_1_1__leaf_clk
*21 net1
*22 net2
*23 net3
*24 net4
*25 net5
*26 FILLER_0_0_20
*27 FILLER_0_0_29
*28 FILLER_0_0_41
*29 FILLER_0_0_8
*30 FILLER_0_10_23
*31 FILLER_0_10_27
*32 FILLER_0_10_35
*33 FILLER_0_10_43
*34 FILLER_0_10_47
*35 FILLER_0_11_15
*36 FILLER_0_11_3
*37 FILLER_0_11_38
*38 FILLER_0_11_46
*39 FILLER_0_12_21
*40 FILLER_0_12_27
*41 FILLER_0_12_32
*42 FILLER_0_12_44
*43 FILLER_0_12_9
*44 FILLER_0_1_13
*45 FILLER_0_1_25
*46 FILLER_0_1_3
*47 FILLER_0_1_37
*48 FILLER_0_1_45
*49 FILLER_0_2_15
*50 FILLER_0_2_27
*51 FILLER_0_2_29
*52 FILLER_0_2_3
*53 FILLER_0_2_41
*54 FILLER_0_2_47
*55 FILLER_0_3_15
*56 FILLER_0_3_27
*57 FILLER_0_3_3
*58 FILLER_0_3_39
*59 FILLER_0_4_15
*60 FILLER_0_4_27
*61 FILLER_0_4_29
*62 FILLER_0_4_3
*63 FILLER_0_4_41
*64 FILLER_0_5_15
*65 FILLER_0_5_27
*66 FILLER_0_5_3
*67 FILLER_0_5_39
*68 FILLER_0_5_47
*69 FILLER_0_6_15
*70 FILLER_0_6_19
*71 FILLER_0_6_27
*72 FILLER_0_6_29
*73 FILLER_0_6_3
*74 FILLER_0_6_37
*75 FILLER_0_6_42
*76 FILLER_0_7_3
*77 FILLER_0_7_46
*78 FILLER_0_8_29
*79 FILLER_0_8_3
*80 FILLER_0_8_40
*81 FILLER_0_8_7
*82 FILLER_0_9_43
*83 PHY_EDGE_ROW_0_Left_13
*84 PHY_EDGE_ROW_0_Right_0
*85 PHY_EDGE_ROW_10_Left_23
*86 PHY_EDGE_ROW_10_Right_10
*87 PHY_EDGE_ROW_11_Left_24
*88 PHY_EDGE_ROW_11_Right_11
*89 PHY_EDGE_ROW_12_Left_25
*90 PHY_EDGE_ROW_12_Right_12
*91 PHY_EDGE_ROW_1_Left_14
*92 PHY_EDGE_ROW_1_Right_1
*93 PHY_EDGE_ROW_2_Left_15
*94 PHY_EDGE_ROW_2_Right_2
*95 PHY_EDGE_ROW_3_Left_16
*96 PHY_EDGE_ROW_3_Right_3
*97 PHY_EDGE_ROW_4_Left_17
*98 PHY_EDGE_ROW_4_Right_4
*99 PHY_EDGE_ROW_5_Left_18
*100 PHY_EDGE_ROW_5_Right_5
*101 PHY_EDGE_ROW_6_Left_19
*102 PHY_EDGE_ROW_6_Right_6
*103 PHY_EDGE_ROW_7_Left_20
*104 PHY_EDGE_ROW_7_Right_7
*105 PHY_EDGE_ROW_8_Left_21
*106 PHY_EDGE_ROW_8_Right_8
*107 PHY_EDGE_ROW_9_Left_22
*108 PHY_EDGE_ROW_9_Right_9
*109 TAP_TAPCELL_ROW_0_26
*110 TAP_TAPCELL_ROW_10_31
*111 TAP_TAPCELL_ROW_12_32
*112 TAP_TAPCELL_ROW_2_27
*113 TAP_TAPCELL_ROW_4_28
*114 TAP_TAPCELL_ROW_6_29
*115 TAP_TAPCELL_ROW_8_30
*116 _09_
*117 _10_
*118 _11_
*119 _12_
*120 _13_
*121 _14_
*122 _15_
*123 _16_
*124 _17_
*125 _18_
*126 _19_
*127 _20_
*128 _21_
*129 clkbuf_0_clk
*130 clkbuf_1_0__f_clk
*131 clkbuf_1_1__f_clk
*132 clkload0
*133 input1
*134 output2
*135 output3
*136 output4
*137 output5

*PORTS
clk I
count[0] O
count[1] O
count[2] O
count[3] O
rst I

*D_NET *3 0.0048741
*CONN
*P clk I
*I *129:A I *D sky130_fd_sc_hd__clkbuf_16
*CAP
1 clk 0.00191629
2 *129:A 4.82143e-05
3 *3:19 0.0019645
4 *129:A *131:A 0.000101775
5 *129:A *15:10 0
6 *129:A *24:10 6.16531e-05
7 *3:19 *15:10 0
8 *3:19 *25:29 0.000531765
9 *3:19 *25:35 0.000249909
*RES
1 clk *3:19 49.9251 
2 *3:19 *129:A 39.3775 
*END

*D_NET *4 0.000641401
*CONN
*P count[0] O
*I *134:X O *D sky130_fd_sc_hd__buf_1
*CAP
1 count[0] 0.000320701
2 *134:X 0.000320701
*RES
1 *134:X count[0] 49.1059 
*END

*D_NET *5 0.000592985
*CONN
*P count[1] O
*I *135:X O *D sky130_fd_sc_hd__buf_1
*CAP
1 count[1] 0.000263755
2 *135:X 0.000263755
3 count[1] *120:C 6.54744e-05
*RES
1 *135:X count[1] 48.4016 
*END

*D_NET *6 0.000584417
*CONN
*P count[2] O
*I *136:X O *D sky130_fd_sc_hd__buf_1
*CAP
1 count[2] 0.000292208
2 *136:X 0.000292208
3 count[2] *117:A_N 0
*RES
1 *136:X count[2] 48.4016 
*END

*D_NET *7 0.000802594
*CONN
*P count[3] O
*I *137:X O *D sky130_fd_sc_hd__buf_1
*CAP
1 count[3] 0.000175108
2 *137:X 0.000226189
3 *7:8 0.000401297
*RES
1 *137:X *7:8 42.5468 
2 *7:8 count[3] 8.672 
*END

*D_NET *8 0.00107768
*CONN
*P rst I
*I *133:A I *D sky130_fd_sc_hd__buf_1
*CAP
1 rst 0.000538839
2 *133:A 0.000538839
*RES
1 rst *133:A 49.1029 
*END

*D_NET *9 0.00113777
*CONN
*I *125:D I *D sky130_fd_sc_hd__dfrtp_2
*I *118:X O *D sky130_fd_sc_hd__clkbuf_1
*CAP
1 *125:D 0
2 *118:X 0.000393703
3 *9:10 0.000393703
4 *9:10 *118:A 0.000170105
5 *9:10 *15:10 0.000141879
6 *9:10 *25:16 0
7 *9:10 *25:29 3.83778e-05
*RES
1 *118:X *9:10 44.815 
2 *9:10 *125:D 38 
*END

*D_NET *10 0.00054384
*CONN
*I *126:D I *D sky130_fd_sc_hd__dfrtp_1
*I *119:X O *D sky130_fd_sc_hd__xor2_1
*CAP
1 *126:D 0
2 *119:X 0.000142062
3 *10:10 0.000142062
4 *10:10 *134:A 2.84912e-05
5 *10:10 *22:51 3.83778e-05
6 *10:10 *23:27 0.000138718
7 *10:10 *23:36 5.41288e-05
*RES
1 *119:X *10:10 41.0036 
2 *10:10 *126:D 38 
*END

*D_NET *11 0.00237716
*CONN
*I *127:D I *D sky130_fd_sc_hd__dfrtp_1
*I *123:X O *D sky130_fd_sc_hd__clkbuf_1
*CAP
1 *127:D 0
2 *123:X 0.000130927
3 *11:14 0.000734733
4 *11:10 0.000865659
5 *11:10 *20:25 0.000169022
6 *11:10 *24:25 0
7 *11:14 *127:CLK 2.93747e-05
8 *11:14 *127:RESET_B 2.55762e-05
9 *11:14 *18:8 7.92721e-05
10 *11:14 *21:14 0.000248426
11 *11:14 *24:10 9.41704e-05
*RES
1 *123:X *11:10 40.5271 
2 *11:10 *11:14 29.4379 
3 *11:14 *127:D 23 
*END

*D_NET *12 0.00186099
*CONN
*I *128:D I *D sky130_fd_sc_hd__dfrtp_1
*I *124:Y O *D sky130_fd_sc_hd__xnor2_1
*CAP
1 *128:D 0
2 *124:Y 8.51245e-05
3 *12:12 0.00084537
4 *12:8 0.000930494
5 *12:12 *122:A 0
6 *12:12 *17:10 0
*RES
1 *124:Y *12:8 39.0979 
2 *12:8 *12:12 30.9914 
3 *12:12 *128:D 23 
*END

*D_NET *13 0.00300001
*CONN
*I *118:A I *D sky130_fd_sc_hd__clkbuf_1
*I *117:X O *D sky130_fd_sc_hd__and2b_1
*CAP
1 *118:A 0.000296595
2 *117:X 0.000410257
3 *13:10 0.000706852
4 *118:A *120:A 0.0002246
5 *118:A *14:6 0.00050237
6 *13:10 *117:A_N 0.000446349
7 *13:10 *16:10 0
8 *13:10 *17:23 0.000230604
9 *13:10 *22:10 1.22803e-05
10 *9:10 *118:A 0.000170105
*RES
1 *117:X *13:10 49.1236 
2 *13:10 *118:A 48.15 
*END

*D_NET *14 0.00487546
*CONN
*I *124:B I *D sky130_fd_sc_hd__xnor2_1
*I *122:B I *D sky130_fd_sc_hd__and3_1
*I *120:Y O *D sky130_fd_sc_hd__nand3_1
*CAP
1 *124:B 5.74448e-05
2 *122:B 0.000354683
3 *120:Y 0.000841504
4 *14:10 0.0011364
5 *14:6 0.00156577
6 *122:B *122:A 0
7 *122:B *122:C 2.19639e-05
8 *122:B *16:6 0.000279495
9 *124:B *124:A 0.000100061
10 *14:6 *120:A 1.5769e-05
11 *14:10 *122:A 0
12 *118:A *14:6 0.00050237
*RES
1 *120:Y *14:6 35.0557 
2 *14:6 *14:10 28.5264 
3 *14:10 *122:B 43.8621 
4 *14:10 *124:B 39.0979 
*END

*D_NET *15 0.00491606
*CONN
*I *122:C I *D sky130_fd_sc_hd__and3_1
*I *121:X O *D sky130_fd_sc_hd__a21o_1
*CAP
1 *122:C 0.000553448
2 *121:X 0
3 *15:10 0.00170737
4 *15:6 0.00115392
5 *122:C *16:6 0.000312534
6 *122:C *25:35 0.000141954
7 *15:10 *131:A 0
8 *15:10 *16:10 0
9 *15:10 *20:12 0
10 *15:10 *21:14 5.21127e-05
11 *15:10 *24:10 0
12 *15:10 *24:25 0.000219089
13 *15:10 *24:31 0.000157179
14 *15:10 *25:16 0
15 *15:10 *25:29 0.00037374
16 *15:10 *25:35 8.08615e-05
17 *122:B *122:C 2.19639e-05
18 *129:A *15:10 0
19 *3:19 *15:10 0
20 *9:10 *15:10 0.000141879
*RES
1 *121:X *15:6 38 
2 *15:6 *15:10 42.9643 
3 *15:10 *122:C 34.4136 
*END

*D_NET *16 0.00512902
*CONN
*I *123:A I *D sky130_fd_sc_hd__clkbuf_1
*I *122:X O *D sky130_fd_sc_hd__and3_1
*CAP
1 *123:A 0.000129202
2 *122:X 0.000519018
3 *16:10 0.00113456
4 *16:6 0.00152438
5 *123:A *20:25 0.000185434
6 *16:6 *25:35 0.000173452
7 *16:10 *22:10 0
8 *16:10 *24:25 0.000410379
9 *16:10 *24:31 0.000460568
10 *122:B *16:6 0.000279495
11 *122:C *16:6 0.000312534
12 *13:10 *16:10 0
13 *15:10 *16:10 0
*RES
1 *122:X *16:6 35.5321 
2 *16:6 *16:10 36.9779 
3 *16:10 *123:A 41.0036 
*END

*D_NET *17 0.00618015
*CONN
*I *117:B I *D sky130_fd_sc_hd__and2b_1
*I *122:A I *D sky130_fd_sc_hd__and3_1
*I *116:X O *D sky130_fd_sc_hd__or4b_1
*CAP
1 *117:B 0
2 *122:A 0.000444263
3 *116:X 0.000136948
4 *17:23 0.00116472
5 *17:10 0.00282545
6 *17:8 0.00135341
7 *17:10 *128:CLK 0
8 *17:10 *132:A 0
9 *17:10 *19:10 0
10 *17:23 *117:A_N 2.4754e-05
11 *122:B *122:A 0
12 *12:12 *122:A 0
13 *12:12 *17:10 0
14 *13:10 *17:23 0.000230604
15 *14:10 *122:A 0
*RES
1 *116:X *17:8 40.0507 
2 *17:8 *17:10 22.6821 
3 *17:10 *122:A 46.5964 
4 *17:10 *17:23 34.2021 
5 *17:23 *117:B 23 
*END

*D_NET *18 0.00328609
*CONN
*I *130:A I *D sky130_fd_sc_hd__clkbuf_16
*I *131:A I *D sky130_fd_sc_hd__clkbuf_16
*I *129:X O *D sky130_fd_sc_hd__clkbuf_16
*CAP
1 *130:A 4.54534e-05
2 *131:A 0.000592019
3 *129:X 0.000501706
4 *18:8 0.00113918
5 *130:A *24:10 5.56203e-05
6 *130:A *25:16 0.000104869
7 *131:A *24:10 2.3529e-05
8 *131:A *25:16 0.000246767
9 *18:8 *21:14 0.000395901
10 *129:A *131:A 0.000101775
11 *11:14 *18:8 7.92721e-05
12 *15:10 *131:A 0
*RES
1 *129:X *18:8 45.2914 
2 *18:8 *131:A 49.4136 
3 *18:8 *130:A 39.5536 
*END

*D_NET *19 0.00207354
*CONN
*I *132:A I *D sky130_fd_sc_hd__clkbuf_4
*I *127:CLK I *D sky130_fd_sc_hd__dfrtp_1
*I *128:CLK I *D sky130_fd_sc_hd__dfrtp_1
*I *130:X O *D sky130_fd_sc_hd__clkbuf_16
*CAP
1 *132:A 0.000242306
2 *127:CLK 0.000151196
3 *128:CLK 0.000403224
4 *130:X 5.45698e-05
5 *19:10 0.000725206
6 *19:8 0.000467662
7 *11:14 *127:CLK 2.93747e-05
8 *17:10 *128:CLK 0
9 *17:10 *132:A 0
10 *17:10 *19:10 0
*RES
1 *130:X *19:8 38.6214 
2 *19:8 *19:10 3.31429 
3 *19:10 *128:CLK 45.3743 
4 *19:10 *127:CLK 40.5479 
5 *19:8 *132:A 42.3707 
*END

*D_NET *20 0.00237908
*CONN
*I *126:CLK I *D sky130_fd_sc_hd__dfrtp_1
*I *125:CLK I *D sky130_fd_sc_hd__dfrtp_2
*I *131:X O *D sky130_fd_sc_hd__clkbuf_16
*CAP
1 *126:CLK 0
2 *125:CLK 0
3 *131:X 0
4 *20:25 0.000641438
5 *20:12 0.000231689
6 *20:4 0.000873127
7 *20:12 *25:16 0
8 *20:25 *134:A 6.48142e-05
9 *20:25 *22:36 0
10 *20:25 *22:51 0.00021356
11 *20:25 *23:47 0
12 *20:25 *24:25 0
13 *123:A *20:25 0.000185434
14 *11:10 *20:25 0.000169022
15 *15:10 *20:12 0
*RES
1 *131:X *20:4 23 
2 *20:4 *20:12 34.06 
3 *20:12 *125:CLK 23 
4 *20:4 *20:25 43.1536 
5 *20:25 *126:CLK 23 
*END

*D_NET *21 0.00440727
*CONN
*I *126:RESET_B I *D sky130_fd_sc_hd__dfrtp_1
*I *125:RESET_B I *D sky130_fd_sc_hd__dfrtp_2
*I *128:RESET_B I *D sky130_fd_sc_hd__dfrtp_1
*I *127:RESET_B I *D sky130_fd_sc_hd__dfrtp_1
*I *133:X O *D sky130_fd_sc_hd__buf_1
*CAP
1 *126:RESET_B 5.2782e-05
2 *125:RESET_B 0.000522862
3 *128:RESET_B 0.000828331
4 *127:RESET_B 3.33939e-05
5 *133:X 9.21879e-05
6 *21:14 0.000773275
7 *21:8 0.000579382
8 *125:RESET_B *25:16 1.47645e-05
9 *125:RESET_B *25:29 9.94828e-06
10 *126:RESET_B *23:27 5.03619e-05
11 *128:RESET_B *25:16 0.000459648
12 *21:8 *116:D_N 0
13 *21:8 *134:A 0
14 *21:14 *116:D_N 0
15 *21:14 *134:A 0
16 *21:14 *23:27 0.00010404
17 *21:14 *24:10 0
18 *21:14 *24:25 0.000164282
19 *11:14 *127:RESET_B 2.55762e-05
20 *11:14 *21:14 0.000248426
21 *15:10 *21:14 5.21127e-05
22 *18:8 *21:14 0.000395901
*RES
1 *133:X *21:8 39.5536 
2 *21:8 *21:14 26.165 
3 *21:14 *127:RESET_B 0.548929 
4 *21:14 *128:RESET_B 36.1314 
5 *128:RESET_B *125:RESET_B 7.685 
6 *21:8 *126:RESET_B 16.0254 
*END

*D_NET *22 0.00814462
*CONN
*I *119:A I *D sky130_fd_sc_hd__xor2_1
*I *134:A I *D sky130_fd_sc_hd__buf_1
*I *116:B I *D sky130_fd_sc_hd__or4b_1
*I *121:A1 I *D sky130_fd_sc_hd__a21o_1
*I *120:B I *D sky130_fd_sc_hd__nand3_1
*I *117:A_N I *D sky130_fd_sc_hd__and2b_1
*I *125:Q O *D sky130_fd_sc_hd__dfrtp_2
*CAP
1 *119:A 2.00578e-05
2 *134:A 0.00042522
3 *116:B 0.000744273
4 *121:A1 9.80128e-05
5 *120:B 0
6 *117:A_N 0.000498077
7 *125:Q 0
8 *22:51 0.00130822
9 *22:40 0.000363229
10 *22:36 0.000565985
11 *22:10 0.000855843
12 *22:4 0.000777208
13 *116:B *116:C 0.000233769
14 *116:B *23:27 0.000451773
15 *119:A *23:36 0
16 *121:A1 *23:27 3.22879e-05
17 *121:A1 *23:36 2.80394e-05
18 *22:10 *120:C 0
19 *22:36 *120:C 0.000524713
20 *22:36 *23:36 3.22879e-05
21 *22:36 *23:47 0.000229578
22 *22:40 *23:36 9.91798e-05
23 *22:51 *23:27 2.8241e-05
24 *22:51 *24:25 0
25 count[2] *117:A_N 0
26 *10:10 *134:A 2.84912e-05
27 *10:10 *22:51 3.83778e-05
28 *13:10 *117:A_N 0.000446349
29 *13:10 *22:10 1.22803e-05
30 *16:10 *22:10 0
31 *17:23 *117:A_N 2.4754e-05
32 *20:25 *134:A 6.48142e-05
33 *20:25 *22:36 0
34 *20:25 *22:51 0.00021356
35 *21:8 *134:A 0
36 *21:14 *134:A 0
*RES
1 *125:Q *22:4 23 
2 *22:4 *22:10 20.1371 
3 *22:10 *117:A_N 49.8486 
4 *22:10 *120:B 38 
5 *22:4 *22:36 40.9993 
6 *22:36 *22:40 2.54786 
7 *22:40 *121:A1 24.5743 
8 *22:40 *22:51 17.9621 
9 *22:51 *116:B 49.1029 
10 *22:51 *134:A 46.0993 
11 *22:36 *119:A 23.4971 
*END

*D_NET *23 0.00515459
*CONN
*I *135:A I *D sky130_fd_sc_hd__buf_1
*I *120:C I *D sky130_fd_sc_hd__nand3_1
*I *119:B I *D sky130_fd_sc_hd__xor2_1
*I *121:A2 I *D sky130_fd_sc_hd__a21o_1
*I *116:C I *D sky130_fd_sc_hd__or4b_1
*I *126:Q O *D sky130_fd_sc_hd__dfrtp_1
*CAP
1 *135:A 0
2 *120:C 0.00043966
3 *119:B 0
4 *121:A2 0
5 *116:C 9.52497e-05
6 *126:Q 0
7 *23:47 0.000662041
8 *23:36 0.000383797
9 *23:27 0.000542455
10 *23:4 0.000476288
11 *116:C *116:A 4.93812e-05
12 *116:C *25:16 0.000239248
13 *23:27 *116:D_N 4.02049e-05
14 *23:27 *24:25 1.01436e-05
15 *23:27 *25:16 0.000143535
16 count[1] *120:C 6.54744e-05
17 *116:B *116:C 0.000233769
18 *116:B *23:27 0.000451773
19 *119:A *23:36 0
20 *121:A1 *23:27 3.22879e-05
21 *121:A1 *23:36 2.80394e-05
22 *126:RESET_B *23:27 5.03619e-05
23 *10:10 *23:27 0.000138718
24 *10:10 *23:36 5.41288e-05
25 *20:25 *23:47 0
26 *21:14 *23:27 0.00010404
27 *22:10 *120:C 0
28 *22:36 *120:C 0.000524713
29 *22:36 *23:36 3.22879e-05
30 *22:36 *23:47 0.000229578
31 *22:40 *23:36 9.91798e-05
32 *22:51 *23:27 2.8241e-05
*RES
1 *126:Q *23:4 23 
2 *23:4 *116:C 26.9771 
3 *23:4 *23:27 41.5171 
4 *23:27 *121:A2 23 
5 *23:27 *23:36 3.97714 
6 *23:36 *119:B 23 
7 *23:36 *23:47 20.0129 
8 *23:47 *120:C 48.9993 
9 *23:47 *135:A 38 
*END

*D_NET *24 0.00640313
*CONN
*I *116:D_N I *D sky130_fd_sc_hd__or4b_1
*I *120:A I *D sky130_fd_sc_hd__nand3_1
*I *136:A I *D sky130_fd_sc_hd__buf_1
*I *121:B1 I *D sky130_fd_sc_hd__a21o_1
*I *127:Q O *D sky130_fd_sc_hd__dfrtp_1
*CAP
1 *116:D_N 0.000552022
2 *120:A 0.000156186
3 *136:A 0
4 *121:B1 0
5 *127:Q 0.000227385
6 *24:31 0.000552085
7 *24:25 0.00114461
8 *24:14 0.000648299
9 *24:10 0.000991366
10 *116:D_N *25:16 0.000183753
11 *24:10 *25:16 1.02387e-05
12 *118:A *120:A 0.0002246
13 *129:A *24:10 6.16531e-05
14 *130:A *24:10 5.56203e-05
15 *131:A *24:10 2.3529e-05
16 *11:10 *24:25 0
17 *11:14 *24:10 9.41704e-05
18 *14:6 *120:A 1.5769e-05
19 *15:10 *24:10 0
20 *15:10 *24:25 0.000219089
21 *15:10 *24:31 0.000157179
22 *16:10 *24:25 0.000410379
23 *16:10 *24:31 0.000460568
24 *20:25 *24:25 0
25 *21:8 *116:D_N 0
26 *21:14 *116:D_N 0
27 *21:14 *24:10 0
28 *21:14 *24:25 0.000164282
29 *22:51 *24:25 0
30 *23:27 *116:D_N 4.02049e-05
31 *23:27 *24:25 1.01436e-05
*RES
1 *127:Q *24:10 42.4121 
2 *24:10 *24:14 18.48 
3 *24:14 *121:B1 23 
4 *24:14 *24:25 26.6829 
5 *24:25 *24:31 27.47 
6 *24:31 *136:A 23 
7 *24:25 *120:A 41.5007 
8 *24:10 *116:D_N 47.425 
*END

*D_NET *25 0.00810546
*CONN
*I *124:A I *D sky130_fd_sc_hd__xnor2_1
*I *137:A I *D sky130_fd_sc_hd__buf_1
*I *116:A I *D sky130_fd_sc_hd__or4b_1
*I *128:Q O *D sky130_fd_sc_hd__dfrtp_1
*CAP
1 *124:A 0.000439689
2 *137:A 0
3 *116:A 9.35792e-05
4 *128:Q 0
5 *25:35 0.000511947
6 *25:29 0.00169565
7 *25:16 0.000780941
8 *25:4 0.00143138
9 *116:C *116:A 4.93812e-05
10 *116:C *25:16 0.000239248
11 *116:D_N *25:16 0.000183753
12 *122:C *25:35 0.000141954
13 *124:B *124:A 0.000100061
14 *125:RESET_B *25:16 1.47645e-05
15 *125:RESET_B *25:29 9.94828e-06
16 *128:RESET_B *25:16 0.000459648
17 *130:A *25:16 0.000104869
18 *131:A *25:16 0.000246767
19 *3:19 *25:29 0.000531765
20 *3:19 *25:35 0.000249909
21 *9:10 *25:16 0
22 *9:10 *25:29 3.83778e-05
23 *15:10 *25:16 0
24 *15:10 *25:29 0.00037374
25 *15:10 *25:35 8.08615e-05
26 *16:6 *25:35 0.000173452
27 *20:12 *25:16 0
28 *23:27 *25:16 0.000143535
29 *24:10 *25:16 1.02387e-05
*RES
1 *128:Q *25:4 23 
2 *25:4 *25:16 48.1457 
3 *25:16 *116:A 25.0507 
4 *25:4 *25:29 32.0893 
5 *25:29 *25:35 27.5114 
6 *25:35 *137:A 23 
7 *25:29 *124:A 45.7679 
*END
